ligand
  RxDock  05162517583D
librxdock.so/0.1.0
 18 19  0  0  0  0  0  0  0  0999 V2000
  -54.6372   52.6223  -17.8244 C   0  0  0  0  0  0
  -53.4238   51.9591  -17.6262 C   0  0  0  0  0  0
  -52.5764   51.6681  -18.7055 C   0  0  0  0  0  0
  -52.9027   52.0281  -20.0220 C   0  0  0  0  0  0
  -54.1257   52.7076  -20.1825 C   0  0  0  0  0  0
  -54.9854   53.0104  -19.1177 C   0  0  0  0  0  0
  -56.5985   53.5303  -16.9594 O   0  5  0  0  0  0
  -55.5190   52.9222  -16.6897 C   0  0  0  0  0  0
  -55.1155   52.5525  -15.5463 O   0  0  0  0  0  0
  -51.3353   50.9838  -18.4033 C   0  0  0  0  0  0
  -50.4520   50.5847  -19.3295 C   0  0  0  0  0  0
  -54.5235   53.1241  -21.5523 C   0  0  0  0  0  0
  -54.1099   54.5045  -21.8479 C   0  0  0  0  0  0
  -53.0857   55.1436  -21.3323 N   0  0  0  0  0  0
  -53.1001   56.3919  -21.9016 N   0  0  0  0  0  0
  -54.1097   56.5177  -22.7522 N   0  0  0  0  0  0
  -54.7656   55.3373  -22.7186 N   0  0  0  0  0  0
  -55.6131   55.1028  -23.2551 H   0  0  0  0  0  0
  1  2  2  0  0  0
  2  3  1  0  0  0
  3  4  2  0  0  0
  3 10  1  0  0  0
  4  5  1  0  0  0
  5  6  2  0  0  0
  5 12  1  0  0  0
  1  6  1  0  0  0
  7  8  1  0  0  0
  1  8  1  0  0  0
  8  9  2  0  0  0
 10 11  2  0  0  0
 12 13  1  0  0  0
 13 14  2  0  0  0
 14 15  1  0  0  0
 15 16  2  0  0  0
 16 17  1  0  0  0
 13 17  1  0  0  0
 17 18  1  0  0  0
M  END
>  <CHROM.1>
176.88297047,-93.86558642,179.78818878,27.96479664,-53.88419677,53.31247213
-19.55381149,1.58881101,-0.58768536,2.17556099

>  <Name>
ligand

>  <RI>
80

>  <Rbt.Current_Directory>
/home/hitesit/Python_Packages/Docking_Pipelines/HandsFreeDocking/Prototypes

>  <Rbt.Executable>
rbdock/0.1.0

>  <Rbt.Library>
librxdock.so/0.1.0

>  <Rbt.Parameter_File>
/home/hitesit/Software/rxdock/rxdock_installation/data/scripts/dock.prm

>  <Rbt.Receptor>
probe.prmtop

>  <SCORE>
-17.7135

>  <SCORE.INTER>
-13.7987

>  <SCORE.INTER.CONST>
1

>  <SCORE.INTER.POLAR>
-1.25414

>  <SCORE.INTER.REPUL>
0

>  <SCORE.INTER.ROT>
4

>  <SCORE.INTER.VDW>
-18.9346

>  <SCORE.INTER.norm>
-0.811688

>  <SCORE.INTRA>
-3.91482

>  <SCORE.INTRA.DIHEDRAL>
-8.56641

>  <SCORE.INTRA.DIHEDRAL.0>
10.682

>  <SCORE.INTRA.POLAR>
0

>  <SCORE.INTRA.POLAR.0>
0

>  <SCORE.INTRA.REPUL>
0

>  <SCORE.INTRA.REPUL.0>
0

>  <SCORE.INTRA.VDW>
0.36839

>  <SCORE.INTRA.VDW.0>
-0.0324487

>  <SCORE.INTRA.norm>
-0.230283

>  <SCORE.RESTR>
0

>  <SCORE.RESTR.CAVITY>
0

>  <SCORE.RESTR.norm>
0

>  <SCORE.SYSTEM>
0

>  <SCORE.SYSTEM.CONST>
0

>  <SCORE.SYSTEM.DIHEDRAL>
0

>  <SCORE.SYSTEM.norm>
0

>  <SCORE.heavy>
17

>  <SCORE.norm>
-1.04197

$$$$
ligand
  RxDock  05162517583D
librxdock.so/0.1.0
 18 19  0  0  0  0  0  0  0  0999 V2000
  -51.3896   51.1906  -18.5613 C   0  0  0  0  0  0
  -52.1284   51.8048  -19.5755 C   0  0  0  0  0  0
  -53.2815   52.5466  -19.2795 C   0  0  0  0  0  0
  -53.7417   52.7077  -17.9636 C   0  0  0  0  0  0
  -52.9647   52.0874  -16.9662 C   0  0  0  0  0  0
  -51.8082   51.3444  -17.2401 C   0  0  0  0  0  0
  -49.5756   49.8909  -17.8984 O   0  5  0  0  0  0
  -50.1845   50.4150  -18.8795 C   0  0  0  0  0  0
  -49.8612   50.3484  -20.1033 O   0  0  0  0  0  0
  -53.9792   53.1536  -20.3951 C   0  0  0  0  0  0
  -53.5873   53.0503  -21.6730 C   0  0  0  0  0  0
  -53.3949   52.2291  -15.5510 C   0  0  0  0  0  0
  -54.7585   51.7197  -15.3383 C   0  0  0  0  0  0
  -55.8804   52.3534  -15.5895 N   0  0  0  0  0  0
  -56.8847   51.4892  -15.2332 N   0  0  0  0  0  0
  -56.3918   50.3463  -14.7754 N   0  0  0  0  0  0
  -55.0487   50.4822  -14.8225 N   0  0  0  0  0  0
  -54.3603   49.7771  -14.5226 H   0  0  0  0  0  0
  1  2  2  0  0  0
  2  3  1  0  0  0
  3  4  2  0  0  0
  3 10  1  0  0  0
  4  5  1  0  0  0
  5  6  2  0  0  0
  5 12  1  0  0  0
  1  6  1  0  0  0
  7  8  1  0  0  0
  1  8  1  0  0  0
  8  9  2  0  0  0
 10 11  2  0  0  0
 12 13  1  0  0  0
 13 14  2  0  0  0
 14 15  1  0  0  0
 15 16  2  0  0  0
 16 17  1  0  0  0
 13 17  1  0  0  0
 17 18  1  0  0  0
M  END
>  <CHROM.1>
-0.21617993,58.03663343,-179.94798968,-81.37651756,-53.20748053,51.55306287
-17.62094636,-0.65978313,-0.40307371,2.00086051

>  <Name>
ligand

>  <RI>
80

>  <Rbt.Current_Directory>
/home/hitesit/Python_Packages/Docking_Pipelines/HandsFreeDocking/Prototypes

>  <Rbt.Executable>
rbdock/0.1.0

>  <Rbt.Library>
librxdock.so/0.1.0

>  <Rbt.Parameter_File>
/home/hitesit/Software/rxdock/rxdock_installation/data/scripts/dock.prm

>  <Rbt.Receptor>
probe.prmtop

>  <SCORE>
-13.0635

>  <SCORE.INTER>
-9.78974

>  <SCORE.INTER.CONST>
1

>  <SCORE.INTER.POLAR>
-1.63959

>  <SCORE.INTER.REPUL>
0

>  <SCORE.INTER.ROT>
4

>  <SCORE.INTER.VDW>
-13.6151

>  <SCORE.INTER.norm>
-0.575867

>  <SCORE.INTRA>
-3.27375

>  <SCORE.INTRA.DIHEDRAL>
-8.60945

>  <SCORE.INTRA.DIHEDRAL.0>
10.682

>  <SCORE.INTRA.POLAR>
0

>  <SCORE.INTRA.POLAR.0>
0

>  <SCORE.INTRA.REPUL>
0

>  <SCORE.INTRA.REPUL.0>
0

>  <SCORE.INTRA.VDW>
1.03098

>  <SCORE.INTRA.VDW.0>
-0.0324487

>  <SCORE.INTRA.norm>
-0.192573

>  <SCORE.RESTR>
0

>  <SCORE.RESTR.CAVITY>
0

>  <SCORE.RESTR.norm>
0

>  <SCORE.SYSTEM>
0

>  <SCORE.SYSTEM.CONST>
0

>  <SCORE.SYSTEM.DIHEDRAL>
0

>  <SCORE.SYSTEM.norm>
0

>  <SCORE.heavy>
17

>  <SCORE.norm>
-0.76844

$$$$
ligand
  RxDock  05162517583D
librxdock.so/0.1.0
 18 19  0  0  0  0  0  0  0  0999 V2000
  -52.0314   51.5531  -19.0529 C   0  0  0  0  0  0
  -52.7021   51.7706  -17.8469 C   0  0  0  0  0  0
  -53.9487   52.4133  -17.8208 C   0  0  0  0  0  0
  -54.5762   52.8614  -18.9934 C   0  0  0  0  0  0
  -53.8783   52.6127  -20.1911 C   0  0  0  0  0  0
  -52.6337   51.9700  -20.2394 C   0  0  0  0  0  0
  -50.2177   50.6681  -20.2134 O   0  5  0  0  0  0
  -50.7265   50.8807  -19.0715 C   0  0  0  0  0  0
  -50.2345   50.5688  -17.9458 O   0  0  0  0  0  0
  -54.5728   52.5888  -16.5249 C   0  0  0  0  0  0
  -54.0467   52.1522  -15.3717 C   0  0  0  0  0  0
  -54.4952   53.0552  -21.4684 C   0  0  0  0  0  0
  -54.1144   54.4337  -21.8131 C   0  0  0  0  0  0
  -53.1071   55.1156  -21.3193 N   0  0  0  0  0  0
  -53.1503   56.3419  -21.9334 N   0  0  0  0  0  0
  -54.1607   56.4124  -22.7895 N   0  0  0  0  0  0
  -54.7880   55.2185  -22.7143 N   0  0  0  0  0  0
  -55.6283   54.9443  -23.2432 H   0  0  0  0  0  0
  1  2  2  0  0  0
  2  3  1  0  0  0
  3  4  2  0  0  0
  3 10  1  0  0  0
  4  5  1  0  0  0
  5  6  2  0  0  0
  5 12  1  0  0  0
  1  6  1  0  0  0
  7  8  1  0  0  0
  1  8  1  0  0  0
  8  9  2  0  0  0
 10 11  2  0  0  0
 12 13  1  0  0  0
 13 14  2  0  0  0
 14 15  1  0  0  0
 15 16  2  0  0  0
 16 17  1  0  0  0
 13 17  1  0  0  0
 17 18  1  0  0  0
M  END
>  <CHROM.1>
-1.48178484,88.99570047,176.78485332,17.44554108,-53.10116030,52.98282146
-19.75679748,-1.17701318,0.60930869,-1.05981088

>  <Name>
ligand

>  <RI>
80

>  <Rbt.Current_Directory>
/home/hitesit/Python_Packages/Docking_Pipelines/HandsFreeDocking/Prototypes

>  <Rbt.Executable>
rbdock/0.1.0

>  <Rbt.Library>
librxdock.so/0.1.0

>  <Rbt.Parameter_File>
/home/hitesit/Software/rxdock/rxdock_installation/data/scripts/dock.prm

>  <Rbt.Receptor>
probe.prmtop

>  <SCORE>
-19.8245

>  <SCORE.INTER>
-16.4824

>  <SCORE.INTER.CONST>
1

>  <SCORE.INTER.POLAR>
-2.44253

>  <SCORE.INTER.REPUL>
0

>  <SCORE.INTER.ROT>
4

>  <SCORE.INTER.VDW>
-17.5778

>  <SCORE.INTER.norm>
-0.96955

>  <SCORE.INTRA>
-3.34211

>  <SCORE.INTRA.DIHEDRAL>
-8.57663

>  <SCORE.INTRA.DIHEDRAL.0>
10.682

>  <SCORE.INTRA.POLAR>
0

>  <SCORE.INTRA.POLAR.0>
0

>  <SCORE.INTRA.REPUL>
0

>  <SCORE.INTRA.REPUL.0>
0

>  <SCORE.INTRA.VDW>
0.946209

>  <SCORE.INTRA.VDW.0>
-0.0324487

>  <SCORE.INTRA.norm>
-0.196595

>  <SCORE.RESTR>
0

>  <SCORE.RESTR.CAVITY>
0

>  <SCORE.RESTR.norm>
0

>  <SCORE.SYSTEM>
0

>  <SCORE.SYSTEM.CONST>
0

>  <SCORE.SYSTEM.DIHEDRAL>
0

>  <SCORE.SYSTEM.norm>
0

>  <SCORE.heavy>
17

>  <SCORE.norm>
-1.16614

$$$$
ligand
  RxDock  05162517583D
librxdock.so/0.1.0
 18 19  0  0  0  0  0  0  0  0999 V2000
  -55.5028   52.9085  -22.4725 C   0  0  0  0  0  0
  -55.1809   54.2291  -22.7953 C   0  0  0  0  0  0
  -54.2144   54.9351  -22.0638 C   0  0  0  0  0  0
  -53.5298   54.3535  -20.9857 C   0  0  0  0  0  0
  -53.8692   53.0173  -20.6980 C   0  0  0  0  0  0
  -54.8295   52.2933  -21.4177 C   0  0  0  0  0  0
  -57.2366   52.8669  -24.0253 O   0  5  0  0  0  0
  -56.5163   52.1769  -23.2423 C   0  0  0  0  0  0
  -56.5818   50.9263  -23.0468 O   0  0  0  0  0  0
  -53.9414   56.2974  -22.4754 C   0  0  0  0  0  0
  -53.0451   57.0973  -21.8802 C   0  0  0  0  0  0
  -53.1720   52.3420  -19.5729 C   0  0  0  0  0  0
  -51.8708   51.7926  -19.9842 C   0  0  0  0  0  0
  -51.0887   51.0134  -19.2739 N   0  0  0  0  0  0
  -49.9954   50.7623  -20.0639 N   0  0  0  0  0  0
  -50.1035   51.3712  -21.2371 N   0  0  0  0  0  0
  -51.2774   52.0381  -21.1964 N   0  0  0  0  0  0
  -51.6613   52.6297  -21.9472 H   0  0  0  0  0  0
  1  2  2  0  0  0
  2  3  1  0  0  0
  3  4  2  0  0  0
  3 10  1  0  0  0
  4  5  1  0  0  0
  5  6  2  0  0  0
  5 12  1  0  0  0
  1  6  1  0  0  0
  7  8  1  0  0  0
  1  8  1  0  0  0
  8  9  2  0  0  0
 10 11  2  0  0  0
 12 13  1  0  0  0
 13 14  2  0  0  0
 14 15  1  0  0  0
 15 16  2  0  0  0
 16 17  1  0  0  0
 13 17  1  0  0  0
 17 18  1  0  0  0
M  END
>  <CHROM.1>
-179.80950104,-83.51831140,-12.54338160,-171.61371892,-53.64721439,52.92330485
-21.57856169,2.76463954,-0.47853350,-0.10918679

>  <Name>
ligand

>  <RI>
80

>  <Rbt.Current_Directory>
/home/hitesit/Python_Packages/Docking_Pipelines/HandsFreeDocking/Prototypes

>  <Rbt.Executable>
rbdock/0.1.0

>  <Rbt.Library>
librxdock.so/0.1.0

>  <Rbt.Parameter_File>
/home/hitesit/Software/rxdock/rxdock_installation/data/scripts/dock.prm

>  <Rbt.Receptor>
probe.prmtop

>  <SCORE>
-15.9558

>  <SCORE.INTER>
-12.1312

>  <SCORE.INTER.CONST>
1

>  <SCORE.INTER.POLAR>
-1.87184

>  <SCORE.INTER.REPUL>
0.118661

>  <SCORE.INTER.ROT>
4

>  <SCORE.INTER.VDW>
-15.7603

>  <SCORE.INTER.norm>
-0.713601

>  <SCORE.INTRA>
-3.8246

>  <SCORE.INTRA.DIHEDRAL>
-8.0881

>  <SCORE.INTRA.DIHEDRAL.0>
10.682

>  <SCORE.INTRA.POLAR>
0

>  <SCORE.INTRA.POLAR.0>
0

>  <SCORE.INTRA.REPUL>
0

>  <SCORE.INTRA.REPUL.0>
0

>  <SCORE.INTRA.VDW>
0.219452

>  <SCORE.INTRA.VDW.0>
-0.0324487

>  <SCORE.INTRA.norm>
-0.224976

>  <SCORE.RESTR>
0

>  <SCORE.RESTR.CAVITY>
0

>  <SCORE.RESTR.norm>
0

>  <SCORE.SYSTEM>
0

>  <SCORE.SYSTEM.CONST>
0

>  <SCORE.SYSTEM.DIHEDRAL>
0

>  <SCORE.SYSTEM.norm>
0

>  <SCORE.heavy>
17

>  <SCORE.norm>
-0.938577

$$$$
ligand
  RxDock  05162517583D
librxdock.so/0.1.0
 18 19  0  0  0  0  0  0  0  0999 V2000
  -55.6819   52.3216  -21.0313 C   0  0  0  0  0  0
  -55.3976   53.5079  -21.7123 C   0  0  0  0  0  0
  -54.2721   54.2770  -21.3818 C   0  0  0  0  0  0
  -53.3856   53.8939  -20.3637 C   0  0  0  0  0  0
  -53.6951   52.6862  -19.7088 C   0  0  0  0  0  0
  -54.8126   51.9016  -20.0251 C   0  0  0  0  0  0
  -56.9975   50.4183  -20.7746 O   0  5  0  0  0  0
  -56.8626   51.5230  -21.3825 C   0  0  0  0  0  0
  -57.6319   52.0082  -22.2653 O   0  0  0  0  0  0
  -54.0536   55.4881  -22.1468 C   0  0  0  0  0  0
  -54.8860   55.9379  -23.0966 C   0  0  0  0  0  0
  -52.7889   52.2215  -18.6267 C   0  0  0  0  0  0
  -53.4133   52.3387  -17.2999 C   0  0  0  0  0  0
  -54.0154   53.3962  -16.8073 N   0  0  0  0  0  0
  -54.4328   53.0361  -15.5508 N   0  0  0  0  0  0
  -54.0978   51.7826  -15.2768 N   0  0  0  0  0  0
  -53.4402   51.3328  -16.3676 N   0  0  0  0  0  0
  -53.0294   50.3950  -16.4801 H   0  0  0  0  0  0
  1  2  2  0  0  0
  2  3  1  0  0  0
  3  4  2  0  0  0
  3 10  1  0  0  0
  4  5  1  0  0  0
  5  6  2  0  0  0
  5 12  1  0  0  0
  1  6  1  0  0  0
  7  8  1  0  0  0
  1  8  1  0  0  0
  8  9  2  0  0  0
 10 11  2  0  0  0
 12 13  1  0  0  0
 13 14  2  0  0  0
 14 15  1  0  0  0
 15 16  2  0  0  0
 16 17  1  0  0  0
 13 17  1  0  0  0
 17 18  1  0  0  0
M  END
>  <CHROM.1>
3.06558579,109.14118762,175.55017830,-49.71322241,-54.73709490,52.78282336
-19.60802270,2.02839916,-0.79715648,-1.00701846

>  <Name>
ligand

>  <RI>
80

>  <Rbt.Current_Directory>
/home/hitesit/Python_Packages/Docking_Pipelines/HandsFreeDocking/Prototypes

>  <Rbt.Executable>
rbdock/0.1.0

>  <Rbt.Library>
librxdock.so/0.1.0

>  <Rbt.Parameter_File>
/home/hitesit/Software/rxdock/rxdock_installation/data/scripts/dock.prm

>  <Rbt.Receptor>
probe.prmtop

>  <SCORE>
-15.0273

>  <SCORE.INTER>
-11.6463

>  <SCORE.INTER.CONST>
1

>  <SCORE.INTER.POLAR>
-1.87406

>  <SCORE.INTER.REPUL>
0

>  <SCORE.INTER.ROT>
4

>  <SCORE.INTER.VDW>
-14.6745

>  <SCORE.INTER.norm>
-0.685078

>  <SCORE.INTRA>
-3.38102

>  <SCORE.INTRA.DIHEDRAL>
-8.5449

>  <SCORE.INTRA.DIHEDRAL.0>
10.682

>  <SCORE.INTRA.POLAR>
0

>  <SCORE.INTRA.POLAR.0>
0

>  <SCORE.INTRA.REPUL>
0

>  <SCORE.INTRA.REPUL.0>
0

>  <SCORE.INTRA.VDW>
0.891436

>  <SCORE.INTRA.VDW.0>
-0.0324487

>  <SCORE.INTRA.norm>
-0.198883

>  <SCORE.RESTR>
0

>  <SCORE.RESTR.CAVITY>
0

>  <SCORE.RESTR.norm>
0

>  <SCORE.SYSTEM>
0

>  <SCORE.SYSTEM.CONST>
0

>  <SCORE.SYSTEM.DIHEDRAL>
0

>  <SCORE.SYSTEM.norm>
0

>  <SCORE.heavy>
17

>  <SCORE.norm>
-0.883961

$$$$
ligand
  RxDock  05162517583D
librxdock.so/0.1.0
 18 19  0  0  0  0  0  0  0  0999 V2000
  -53.4169   52.0771  -17.3079 C   0  0  0  0  0  0
  -52.2584   51.4568  -17.7820 C   0  0  0  0  0  0
  -51.9728   51.4154  -19.1547 C   0  0  0  0  0  0
  -52.8272   51.9918  -20.1072 C   0  0  0  0  0  0
  -53.9775   52.6206  -19.5926 C   0  0  0  0  0  0
  -54.2800   52.6755  -18.2252 C   0  0  0  0  0  0
  -54.3211   53.1414  -15.4454 O   0  5  0  0  0  0
  -53.7091   52.1151  -15.8698 C   0  0  0  0  0  0
  -53.3158   51.1230  -15.1859 O   0  0  0  0  0  0
  -50.7450   50.7570  -19.5530 C   0  0  0  0  0  0
  -49.8686   50.2170  -18.6941 C   0  0  0  0  0  0
  -54.9176   53.2581  -20.5505 C   0  0  0  0  0  0
  -54.3393   54.4613  -21.1685 C   0  0  0  0  0  0
  -53.0746   54.8134  -21.1661 N   0  0  0  0  0  0
  -53.0157   55.9971  -21.8574 N   0  0  0  0  0  0
  -54.2181   56.3645  -22.2793 N   0  0  0  0  0  0
  -55.0674   55.4107  -21.8394 N   0  0  0  0  0  0
  -56.0873   55.3985  -21.9833 H   0  0  0  0  0  0
  1  2  2  0  0  0
  2  3  1  0  0  0
  3  4  2  0  0  0
  3 10  1  0  0  0
  4  5  1  0  0  0
  5  6  2  0  0  0
  5 12  1  0  0  0
  1  6  1  0  0  0
  7  8  1  0  0  0
  1  8  1  0  0  0
  8  9  2  0  0  0
 10 11  2  0  0  0
 12 13  1  0  0  0
 13 14  2  0  0  0
 14 15  1  0  0  0
 15 16  2  0  0  0
 16 17  1  0  0  0
 13 17  1  0  0  0
 17 18  1  0  0  0
M  END
>  <CHROM.1>
-1.33243983,-69.54217955,147.02801112,15.09886246,-53.27911045,52.96995767
-19.13701951,1.27115997,-0.69568645,2.04709310

>  <Name>
ligand

>  <RI>
80

>  <Rbt.Current_Directory>
/home/hitesit/Python_Packages/Docking_Pipelines/HandsFreeDocking/Prototypes

>  <Rbt.Executable>
rbdock/0.1.0

>  <Rbt.Library>
librxdock.so/0.1.0

>  <Rbt.Parameter_File>
/home/hitesit/Software/rxdock/rxdock_installation/data/scripts/dock.prm

>  <Rbt.Receptor>
probe.prmtop

>  <SCORE>
-18.7179

>  <SCORE.INTER>
-16.9842

>  <SCORE.INTER.CONST>
1

>  <SCORE.INTER.POLAR>
-2.82233

>  <SCORE.INTER.REPUL>
0

>  <SCORE.INTER.ROT>
4

>  <SCORE.INTER.VDW>
-16.7882

>  <SCORE.INTER.norm>
-0.999069

>  <SCORE.INTRA>
-1.73373

>  <SCORE.INTRA.DIHEDRAL>
-4.94775

>  <SCORE.INTRA.DIHEDRAL.0>
10.682

>  <SCORE.INTRA.POLAR>
0

>  <SCORE.INTRA.POLAR.0>
0

>  <SCORE.INTRA.REPUL>
0

>  <SCORE.INTRA.REPUL.0>
0

>  <SCORE.INTRA.VDW>
0.740145

>  <SCORE.INTRA.VDW.0>
-0.0324487

>  <SCORE.INTRA.norm>
-0.101984

>  <SCORE.RESTR>
0

>  <SCORE.RESTR.CAVITY>
0

>  <SCORE.RESTR.norm>
0

>  <SCORE.SYSTEM>
0

>  <SCORE.SYSTEM.CONST>
0

>  <SCORE.SYSTEM.DIHEDRAL>
0

>  <SCORE.SYSTEM.norm>
0

>  <SCORE.heavy>
17

>  <SCORE.norm>
-1.10105

$$$$
ligand
  RxDock  05162517583D
librxdock.so/0.1.0
 18 19  0  0  0  0  0  0  0  0999 V2000
  -54.5739   52.6090  -17.7683 C   0  0  0  0  0  0
  -53.3345   51.9977  -17.5636 C   0  0  0  0  0  0
  -52.4689   51.7451  -18.6381 C   0  0  0  0  0  0
  -52.8021   52.0935  -19.9560 C   0  0  0  0  0  0
  -54.0520   52.7205  -20.1230 C   0  0  0  0  0  0
  -54.9303   52.9845  -19.0631 C   0  0  0  0  0  0
  -55.0956   52.4435  -15.5056 O   0  5  0  0  0  0
  -55.4745   52.8689  -16.6385 C   0  0  0  0  0  0
  -56.5495   53.4867  -16.9021 O   0  0  0  0  0  0
  -51.2017   51.1138  -18.3293 C   0  0  0  0  0  0
  -50.3519   50.6420  -19.2528 C   0  0  0  0  0  0
  -54.4588   53.1224  -21.4945 C   0  0  0  0  0  0
  -54.0769   54.5107  -21.7955 C   0  0  0  0  0  0
  -53.0689   55.1759  -21.2807 N   0  0  0  0  0  0
  -53.1113   56.4210  -21.8557 N   0  0  0  0  0  0
  -54.1218   56.5193  -22.7089 N   0  0  0  0  0  0
  -54.7500   55.3242  -22.6713 N   0  0  0  0  0  0
  -55.5907   55.0675  -23.2084 H   0  0  0  0  0  0
  1  2  2  0  0  0
  2  3  1  0  0  0
  3  4  2  0  0  0
  3 10  1  0  0  0
  4  5  1  0  0  0
  5  6  2  0  0  0
  5 12  1  0  0  0
  1  6  1  0  0  0
  7  8  1  0  0  0
  1  8  1  0  0  0
  8  9  2  0  0  0
 10 11  2  0  0  0
 12 13  1  0  0  0
 13 14  2  0  0  0
 14 15  1  0  0  0
 15 16  2  0  0  0
 16 17  1  0  0  0
 13 17  1  0  0  0
 17 18  1  0  0  0
M  END
>  <CHROM.1>
170.40723082,-92.64592983,-3.80828660,27.85861638,-53.83025184,53.32148290
-19.49741069,1.57917637,-0.55770697,2.17038824

>  <Name>
ligand

>  <RI>
80

>  <Rbt.Current_Directory>
/home/hitesit/Python_Packages/Docking_Pipelines/HandsFreeDocking/Prototypes

>  <Rbt.Executable>
rbdock/0.1.0

>  <Rbt.Library>
librxdock.so/0.1.0

>  <Rbt.Parameter_File>
/home/hitesit/Software/rxdock/rxdock_installation/data/scripts/dock.prm

>  <Rbt.Receptor>
probe.prmtop

>  <SCORE>
-17.5922

>  <SCORE.INTER>
-13.823

>  <SCORE.INTER.CONST>
1

>  <SCORE.INTER.POLAR>
-1.20927

>  <SCORE.INTER.REPUL>
0

>  <SCORE.INTER.ROT>
4

>  <SCORE.INTER.VDW>
-19.1115

>  <SCORE.INTER.norm>
-0.813117

>  <SCORE.INTRA>
-3.76917

>  <SCORE.INTRA.DIHEDRAL>
-8.19989

>  <SCORE.INTRA.DIHEDRAL.0>
10.682

>  <SCORE.INTRA.POLAR>
0

>  <SCORE.INTRA.POLAR.0>
0

>  <SCORE.INTRA.REPUL>
0

>  <SCORE.INTRA.REPUL.0>
0

>  <SCORE.INTRA.VDW>
0.330773

>  <SCORE.INTRA.VDW.0>
-0.0324487

>  <SCORE.INTRA.norm>
-0.221716

>  <SCORE.RESTR>
0

>  <SCORE.RESTR.CAVITY>
0

>  <SCORE.RESTR.norm>
0

>  <SCORE.SYSTEM>
0

>  <SCORE.SYSTEM.CONST>
0

>  <SCORE.SYSTEM.DIHEDRAL>
0

>  <SCORE.SYSTEM.norm>
0

>  <SCORE.heavy>
17

>  <SCORE.norm>
-1.03483

$$$$
ligand
  RxDock  05162517583D
librxdock.so/0.1.0
 18 19  0  0  0  0  0  0  0  0999 V2000
  -54.5627   52.5978  -17.7716 C   0  0  0  0  0  0
  -53.3400   51.9491  -17.5824 C   0  0  0  0  0  0
  -52.4978   51.6670  -18.6681 C   0  0  0  0  0  0
  -52.8386   52.0220  -19.9823 C   0  0  0  0  0  0
  -54.0708   52.6869  -20.1337 C   0  0  0  0  0  0
  -54.9255   52.9806  -19.0625 C   0  0  0  0  0  0
  -54.9825   52.6038  -15.4819 O   0  5  0  0  0  0
  -55.4390   52.8883  -16.6302 C   0  0  0  0  0  0
  -56.5720   53.3887  -16.8995 O   0  0  0  0  0  0
  -51.2464   50.9977  -18.3751 C   0  0  0  0  0  0
  -50.3495   50.6398  -19.3050 C   0  0  0  0  0  0
  -54.4841   53.0975  -21.5007 C   0  0  0  0  0  0
  -54.0843   54.4806  -21.8027 C   0  0  0  0  0  0
  -53.0513   55.1236  -21.3097 N   0  0  0  0  0  0
  -53.0851   56.3730  -21.8757 N   0  0  0  0  0  0
  -54.1151   56.4957  -22.7020 N   0  0  0  0  0  0
  -54.7643   55.3121  -22.6558 N   0  0  0  0  0  0
  -55.6230   55.0747  -23.1728 H   0  0  0  0  0  0
  1  2  2  0  0  0
  2  3  1  0  0  0
  3  4  2  0  0  0
  3 10  1  0  0  0
  4  5  1  0  0  0
  5  6  2  0  0  0
  5 12  1  0  0  0
  1  6  1  0  0  0
  7  8  1  0  0  0
  1  8  1  0  0  0
  8  9  2  0  0  0
 10 11  2  0  0  0
 12 13  1  0  0  0
 13 14  2  0  0  0
 14 15  1  0  0  0
 15 16  2  0  0  0
 16 17  1  0  0  0
 13 17  1  0  0  0
 17 18  1  0  0  0
M  END
>  <CHROM.1>
178.72567153,-93.63225506,4.68520530,28.84974912,-53.82836577,53.29526553
-19.50798850,1.57757075,-0.57454916,2.16502725

>  <Name>
ligand

>  <RI>
80

>  <Rbt.Current_Directory>
/home/hitesit/Python_Packages/Docking_Pipelines/HandsFreeDocking/Prototypes

>  <Rbt.Executable>
rbdock/0.1.0

>  <Rbt.Library>
librxdock.so/0.1.0

>  <Rbt.Parameter_File>
/home/hitesit/Software/rxdock/rxdock_installation/data/scripts/dock.prm

>  <Rbt.Receptor>
probe.prmtop

>  <SCORE>
-17.7187

>  <SCORE.INTER>
-13.8284

>  <SCORE.INTER.CONST>
1

>  <SCORE.INTER.POLAR>
-1.25799

>  <SCORE.INTER.REPUL>
0

>  <SCORE.INTER.ROT>
4

>  <SCORE.INTER.VDW>
-18.9513

>  <SCORE.INTER.norm>
-0.813438

>  <SCORE.INTRA>
-3.89023

>  <SCORE.INTRA.DIHEDRAL>
-8.49094

>  <SCORE.INTRA.DIHEDRAL.0>
10.682

>  <SCORE.INTRA.POLAR>
0

>  <SCORE.INTRA.POLAR.0>
0

>  <SCORE.INTRA.REPUL>
0

>  <SCORE.INTRA.REPUL.0>
0

>  <SCORE.INTRA.VDW>
0.355246

>  <SCORE.INTRA.VDW.0>
-0.0324487

>  <SCORE.INTRA.norm>
-0.228837

>  <SCORE.RESTR>
0

>  <SCORE.RESTR.CAVITY>
0

>  <SCORE.RESTR.norm>
0

>  <SCORE.SYSTEM>
0

>  <SCORE.SYSTEM.CONST>
0

>  <SCORE.SYSTEM.DIHEDRAL>
0

>  <SCORE.SYSTEM.norm>
0

>  <SCORE.heavy>
17

>  <SCORE.norm>
-1.04227

$$$$
ligand
  RxDock  05162517583D
librxdock.so/0.1.0
 18 19  0  0  0  0  0  0  0  0999 V2000
  -53.9862   52.5450  -17.9656 C   0  0  0  0  0  0
  -54.1685   53.2823  -19.1382 C   0  0  0  0  0  0
  -53.3525   53.0682  -20.2588 C   0  0  0  0  0  0
  -52.3264   52.1108  -20.2565 C   0  0  0  0  0  0
  -52.1808   51.3767  -19.0635 C   0  0  0  0  0  0
  -52.9869   51.5730  -17.9338 C   0  0  0  0  0  0
  -54.5724   52.1035  -15.7564 O   0  5  0  0  0  0
  -54.8437   52.7759  -16.7967 C   0  0  0  0  0  0
  -55.7792   53.6194  -16.9389 O   0  0  0  0  0  0
  -53.6199   53.8746  -21.4327 C   0  0  0  0  0  0
  -54.5523   54.8364  -21.4877 C   0  0  0  0  0  0
  -51.1172   50.3410  -19.0014 C   0  0  0  0  0  0
  -50.0212   50.7333  -18.1019 C   0  0  0  0  0  0
  -49.9628   51.8170  -17.3633 N   0  0  0  0  0  0
  -48.7627   51.7529  -16.7013 N   0  0  0  0  0  0
  -48.0977   50.6515  -17.0230 N   0  0  0  0  0  0
  -48.8743   50.0035  -17.9183 N   0  0  0  0  0  0
  -48.6445   49.1137  -18.3834 H   0  0  0  0  0  0
  1  2  2  0  0  0
  2  3  1  0  0  0
  3  4  2  0  0  0
  3 10  1  0  0  0
  4  5  1  0  0  0
  5  6  2  0  0  0
  5 12  1  0  0  0
  1  6  1  0  0  0
  7  8  1  0  0  0
  1  8  1  0  0  0
  8  9  2  0  0  0
 10 11  2  0  0  0
 12 13  1  0  0  0
 13 14  2  0  0  0
 14 15  1  0  0  0
 15 16  2  0  0  0
 16 17  1  0  0  0
 13 17  1  0  0  0
 17 18  1  0  0  0
M  END
>  <CHROM.1>
2.82951398,109.99815062,-177.08688977,3.42851427,-52.29849410,52.13643019
-18.36133926,2.79020241,0.39045282,-1.30893600

>  <Name>
ligand

>  <RI>
80

>  <Rbt.Current_Directory>
/home/hitesit/Python_Packages/Docking_Pipelines/HandsFreeDocking/Prototypes

>  <Rbt.Executable>
rbdock/0.1.0

>  <Rbt.Library>
librxdock.so/0.1.0

>  <Rbt.Parameter_File>
/home/hitesit/Software/rxdock/rxdock_installation/data/scripts/dock.prm

>  <Rbt.Receptor>
probe.prmtop

>  <SCORE>
-18.9524

>  <SCORE.INTER>
-15.7888

>  <SCORE.INTER.CONST>
1

>  <SCORE.INTER.POLAR>
-1.95625

>  <SCORE.INTER.REPUL>
0

>  <SCORE.INTER.ROT>
4

>  <SCORE.INTER.VDW>
-18.5375

>  <SCORE.INTER.norm>
-0.928752

>  <SCORE.INTRA>
-3.16361

>  <SCORE.INTRA.DIHEDRAL>
-8.54604

>  <SCORE.INTRA.DIHEDRAL.0>
10.682

>  <SCORE.INTRA.POLAR>
0

>  <SCORE.INTRA.POLAR.0>
0

>  <SCORE.INTRA.REPUL>
0

>  <SCORE.INTRA.REPUL.0>
0

>  <SCORE.INTRA.VDW>
1.10941

>  <SCORE.INTRA.VDW.0>
-0.0324487

>  <SCORE.INTRA.norm>
-0.186095

>  <SCORE.RESTR>
0

>  <SCORE.RESTR.CAVITY>
0

>  <SCORE.RESTR.norm>
0

>  <SCORE.SYSTEM>
0

>  <SCORE.SYSTEM.CONST>
0

>  <SCORE.SYSTEM.DIHEDRAL>
0

>  <SCORE.SYSTEM.norm>
0

>  <SCORE.heavy>
17

>  <SCORE.norm>
-1.11485

$$$$
ligand
  RxDock  05162517583D
librxdock.so/0.1.0
 18 19  0  0  0  0  0  0  0  0999 V2000
  -55.7346   51.0812  -19.8750 C   0  0  0  0  0  0
  -55.7699   52.1878  -20.7269 C   0  0  0  0  0  0
  -54.7170   53.1144  -20.7494 C   0  0  0  0  0  0
  -53.5883   52.9738  -19.9274 C   0  0  0  0  0  0
  -53.5801   51.8397  -19.0925 C   0  0  0  0  0  0
  -54.6200   50.9007  -19.0567 C   0  0  0  0  0  0
  -56.7021   49.1132  -19.0939 O   0  5  0  0  0  0
  -56.8411   50.1166  -19.8567 C   0  0  0  0  0  0
  -57.8276   50.3727  -20.6102 O   0  0  0  0  0  0
  -54.8375   54.2269  -21.6701 C   0  0  0  0  0  0
  -54.0115   55.2827  -21.6856 C   0  0  0  0  0  0
  -52.4073   51.6295  -18.2046 C   0  0  0  0  0  0
  -51.4458   50.6773  -18.7816 C   0  0  0  0  0  0
  -51.5917   49.3761  -18.8765 N   0  0  0  0  0  0
  -50.4470   48.9154  -19.4766 N   0  0  0  0  0  0
  -49.6155   49.9120  -19.7484 N   0  0  0  0  0  0
  -50.2268   51.0307  -19.3021 N   0  0  0  0  0  0
  -49.8433   51.9858  -19.3453 H   0  0  0  0  0  0
  1  2  2  0  0  0
  2  3  1  0  0  0
  3  4  2  0  0  0
  3 10  1  0  0  0
  4  5  1  0  0  0
  5  6  2  0  0  0
  5 12  1  0  0  0
  1  6  1  0  0  0
  7  8  1  0  0  0
  1  8  1  0  0  0
  8  9  2  0  0  0
 10 11  2  0  0  0
 12 13  1  0  0  0
 13 14  2  0  0  0
 14 15  1  0  0  0
 15 16  2  0  0  0
 16 17  1  0  0  0
 13 17  1  0  0  0
 17 18  1  0  0  0
M  END
>  <CHROM.1>
170.76700533,-98.17190302,177.19797888,-73.32532499,-53.75939208,51.29126839
-19.80333754,2.82583001,-0.11084620,-0.37628278

>  <Name>
ligand

>  <RI>
80

>  <Rbt.Current_Directory>
/home/hitesit/Python_Packages/Docking_Pipelines/HandsFreeDocking/Prototypes

>  <Rbt.Executable>
rbdock/0.1.0

>  <Rbt.Library>
librxdock.so/0.1.0

>  <Rbt.Parameter_File>
/home/hitesit/Software/rxdock/rxdock_installation/data/scripts/dock.prm

>  <Rbt.Receptor>
probe.prmtop

>  <SCORE>
-15.3445

>  <SCORE.INTER>
-11.4697

>  <SCORE.INTER.CONST>
1

>  <SCORE.INTER.POLAR>
-1.79909

>  <SCORE.INTER.REPUL>
0

>  <SCORE.INTER.ROT>
4

>  <SCORE.INTER.VDW>
-14.7528

>  <SCORE.INTER.norm>
-0.674686

>  <SCORE.INTRA>
-3.87484

>  <SCORE.INTRA.DIHEDRAL>
-8.25237

>  <SCORE.INTRA.DIHEDRAL.0>
10.682

>  <SCORE.INTRA.POLAR>
0

>  <SCORE.INTRA.POLAR.0>
0

>  <SCORE.INTRA.REPUL>
0

>  <SCORE.INTRA.REPUL.0>
0

>  <SCORE.INTRA.VDW>
0.251343

>  <SCORE.INTRA.VDW.0>
-0.0324487

>  <SCORE.INTRA.norm>
-0.227932

>  <SCORE.RESTR>
0

>  <SCORE.RESTR.CAVITY>
0

>  <SCORE.RESTR.norm>
0

>  <SCORE.SYSTEM>
0

>  <SCORE.SYSTEM.CONST>
0

>  <SCORE.SYSTEM.DIHEDRAL>
0

>  <SCORE.SYSTEM.norm>
0

>  <SCORE.heavy>
17

>  <SCORE.norm>
-0.902618

$$$$
ligand
  RxDock  05162517583D
librxdock.so/0.1.0
 18 19  0  0  0  0  0  0  0  0999 V2000
  -55.5953   53.0199  -22.6359 C   0  0  0  0  0  0
  -55.2321   54.3262  -22.9728 C   0  0  0  0  0  0
  -54.2590   55.0170  -22.2356 C   0  0  0  0  0  0
  -53.6086   54.4336  -21.1373 C   0  0  0  0  0  0
  -53.9892   53.1118  -20.8355 C   0  0  0  0  0  0
  -54.9568   52.4030  -21.5607 C   0  0  0  0  0  0
  -56.7034   51.0553  -23.2115 O   0  5  0  0  0  0
  -56.6155   52.3043  -23.4119 C   0  0  0  0  0  0
  -57.3072   52.9999  -24.2147 O   0  0  0  0  0  0
  -53.9420   56.3649  -22.6627 C   0  0  0  0  0  0
  -53.0694   57.1666  -22.0357 C   0  0  0  0  0  0
  -53.3295   52.4353  -19.6887 C   0  0  0  0  0  0
  -53.9195   52.8360  -18.4021 C   0  0  0  0  0  0
  -53.3754   52.7032  -17.2147 N   0  0  0  0  0  0
  -54.2893   53.2118  -16.3267 N   0  0  0  0  0  0
  -55.3718   53.6515  -16.9542 N   0  0  0  0  0  0
  -55.1588   53.4079  -18.2656 N   0  0  0  0  0  0
  -55.8148   53.6160  -19.0320 H   0  0  0  0  0  0
  1  2  2  0  0  0
  2  3  1  0  0  0
  3  4  2  0  0  0
  3 10  1  0  0  0
  4  5  1  0  0  0
  5  6  2  0  0  0
  5 12  1  0  0  0
  1  6  1  0  0  0
  7  8  1  0  0  0
  1  8  1  0  0  0
  8  9  2  0  0  0
 10 11  2  0  0  0
 12 13  1  0  0  0
 13 14  2  0  0  0
 14 15  1  0  0  0
 15 16  2  0  0  0
 16 17  1  0  0  0
 13 17  1  0  0  0
 17 18  1  0  0  0
M  END
>  <CHROM.1>
177.68581424,80.40777605,166.85089986,-161.40111684,-54.79192894,53.52840423
-20.80027177,2.07473143,-0.95433893,-1.11643338

>  <Name>
ligand

>  <RI>
80

>  <Rbt.Current_Directory>
/home/hitesit/Python_Packages/Docking_Pipelines/HandsFreeDocking/Prototypes

>  <Rbt.Executable>
rbdock/0.1.0

>  <Rbt.Library>
librxdock.so/0.1.0

>  <Rbt.Parameter_File>
/home/hitesit/Software/rxdock/rxdock_installation/data/scripts/dock.prm

>  <Rbt.Receptor>
probe.prmtop

>  <SCORE>
-17.7397

>  <SCORE.INTER>
-13.8447

>  <SCORE.INTER.CONST>
1

>  <SCORE.INTER.POLAR>
-1.8463

>  <SCORE.INTER.REPUL>
0.0254982

>  <SCORE.INTER.ROT>
4

>  <SCORE.INTER.VDW>
-17.0947

>  <SCORE.INTER.norm>
-0.814392

>  <SCORE.INTRA>
-3.89504

>  <SCORE.INTRA.DIHEDRAL>
-8.01283

>  <SCORE.INTRA.DIHEDRAL.0>
10.682

>  <SCORE.INTRA.POLAR>
0

>  <SCORE.INTRA.POLAR.0>
0

>  <SCORE.INTRA.REPUL>
0

>  <SCORE.INTRA.REPUL.0>
0

>  <SCORE.INTRA.VDW>
0.111381

>  <SCORE.INTRA.VDW.0>
-0.0324487

>  <SCORE.INTRA.norm>
-0.22912

>  <SCORE.RESTR>
0

>  <SCORE.RESTR.CAVITY>
0

>  <SCORE.RESTR.norm>
0

>  <SCORE.SYSTEM>
0

>  <SCORE.SYSTEM.CONST>
0

>  <SCORE.SYSTEM.DIHEDRAL>
0

>  <SCORE.SYSTEM.norm>
0

>  <SCORE.heavy>
17

>  <SCORE.norm>
-1.04351

$$$$
ligand
  RxDock  05162517583D
librxdock.so/0.1.0
 18 19  0  0  0  0  0  0  0  0999 V2000
  -53.8029   52.2145  -17.1702 C   0  0  0  0  0  0
  -54.3089   53.0564  -18.1636 C   0  0  0  0  0  0
  -53.7152   53.1118  -19.4332 C   0  0  0  0  0  0
  -52.5976   52.3299  -19.7635 C   0  0  0  0  0  0
  -52.1235   51.4829  -18.7431 C   0  0  0  0  0  0
  -52.7036   51.4104  -17.4692 C   0  0  0  0  0  0
  -54.4299   51.0358  -15.2632 O   0  5  0  0  0  0
  -54.4294   52.1633  -15.8436 C   0  0  0  0  0  0
  -54.9178   53.2481  -15.4061 O   0  0  0  0  0  0
  -54.3127   54.0087  -20.4019 C   0  0  0  0  0  0
  -53.8732   54.1579  -21.6596 C   0  0  0  0  0  0
  -50.9476   50.6224  -19.0341 C   0  0  0  0  0  0
  -49.8507   50.8515  -18.0810 C   0  0  0  0  0  0
  -49.7360   51.8567  -17.2444 N   0  0  0  0  0  0
  -48.5609   51.6466  -16.5680 N   0  0  0  0  0  0
  -47.9663   50.5340  -16.9769 N   0  0  0  0  0  0
  -48.7627   50.0275  -17.9433 N   0  0  0  0  0  0
  -48.5837   49.1694  -18.4841 H   0  0  0  0  0  0
  1  2  2  0  0  0
  2  3  1  0  0  0
  3  4  2  0  0  0
  3 10  1  0  0  0
  4  5  1  0  0  0
  5  6  2  0  0  0
  5 12  1  0  0  0
  1  6  1  0  0  0
  7  8  1  0  0  0
  1  8  1  0  0  0
  8  9  2  0  0  0
 10 11  2  0  0  0
 12 13  1  0  0  0
 13 14  2  0  0  0
 14 15  1  0  0  0
 15 16  2  0  0  0
 16 17  1  0  0  0
 13 17  1  0  0  0
 17 18  1  0  0  0
M  END
>  <CHROM.1>
-178.98804163,123.42764526,145.41926368,-14.06177726,-52.15757629,51.96477467
-17.89513355,2.88479667,0.34845365,-1.27860883

>  <Name>
ligand

>  <RI>
80

>  <Rbt.Current_Directory>
/home/hitesit/Python_Packages/Docking_Pipelines/HandsFreeDocking/Prototypes

>  <Rbt.Executable>
rbdock/0.1.0

>  <Rbt.Library>
librxdock.so/0.1.0

>  <Rbt.Parameter_File>
/home/hitesit/Software/rxdock/rxdock_installation/data/scripts/dock.prm

>  <Rbt.Receptor>
probe.prmtop

>  <SCORE>
-19.3447

>  <SCORE.INTER>
-17.3368

>  <SCORE.INTER.CONST>
1

>  <SCORE.INTER.POLAR>
-2.7437

>  <SCORE.INTER.REPUL>
0

>  <SCORE.INTER.ROT>
4

>  <SCORE.INTER.VDW>
-17.4083

>  <SCORE.INTER.norm>
-1.01981

>  <SCORE.INTRA>
-2.00785

>  <SCORE.INTRA.DIHEDRAL>
-4.64559

>  <SCORE.INTRA.DIHEDRAL.0>
10.682

>  <SCORE.INTRA.POLAR>
0

>  <SCORE.INTRA.POLAR.0>
0

>  <SCORE.INTRA.REPUL>
0

>  <SCORE.INTRA.REPUL.0>
0

>  <SCORE.INTRA.VDW>
0.314943

>  <SCORE.INTRA.VDW.0>
-0.0324487

>  <SCORE.INTRA.norm>
-0.118109

>  <SCORE.RESTR>
0

>  <SCORE.RESTR.CAVITY>
0

>  <SCORE.RESTR.norm>
0

>  <SCORE.SYSTEM>
0

>  <SCORE.SYSTEM.CONST>
0

>  <SCORE.SYSTEM.DIHEDRAL>
0

>  <SCORE.SYSTEM.norm>
0

>  <SCORE.heavy>
17

>  <SCORE.norm>
-1.13792

$$$$
ligand
  RxDock  05162517583D
librxdock.so/0.1.0
 18 19  0  0  0  0  0  0  0  0999 V2000
  -50.2690   49.4603  -16.7131 C   0  0  0  0  0  0
  -49.4633   50.3262  -15.9696 C   0  0  0  0  0  0
  -49.6182   51.7170  -16.0668 C   0  0  0  0  0  0
  -50.5819   52.2987  -16.9048 C   0  0  0  0  0  0
  -51.3853   51.3959  -17.6279 C   0  0  0  0  0  0
  -51.2488   50.0035  -17.5433 C   0  0  0  0  0  0
  -49.1742   47.6003  -15.8406 O   0  5  0  0  0  0
  -50.0998   48.0059  -16.6067 C   0  0  0  0  0  0
  -50.8889   47.2924  -17.2958 O   0  0  0  0  0  0
  -48.7428   52.5361  -15.2529 C   0  0  0  0  0  0
  -48.7400   53.8767  -15.2666 C   0  0  0  0  0  0
  -52.4310   51.9502  -18.5263 C   0  0  0  0  0  0
  -53.6701   52.2637  -17.7981 C   0  0  0  0  0  0
  -53.9048   53.3332  -17.0739 N   0  0  0  0  0  0
  -55.1819   53.1859  -16.5943 N   0  0  0  0  0  0
  -55.7233   52.0515  -17.0169 N   0  0  0  0  0  0
  -54.7746   51.4506  -17.7676 N   0  0  0  0  0  0
  -54.8650   50.5381  -18.2368 H   0  0  0  0  0  0
  1  2  2  0  0  0
  2  3  1  0  0  0
  3  4  2  0  0  0
  3 10  1  0  0  0
  4  5  1  0  0  0
  5  6  2  0  0  0
  5 12  1  0  0  0
  1  6  1  0  0  0
  7  8  1  0  0  0
  1  8  1  0  0  0
  8  9  2  0  0  0
 10 11  2  0  0  0
 12 13  1  0  0  0
 13 14  2  0  0  0
 14 15  1  0  0  0
 15 16  2  0  0  0
 16 17  1  0  0  0
 13 17  1  0  0  0
 17 18  1  0  0  0
M  END
>  <CHROM.1>
177.80904693,-83.91861233,-1.71889016,80.20392222,-51.56051557,51.05709141
-16.81802346,0.52329487,0.30476500,-2.98238167

>  <Name>
ligand

>  <RI>
80

>  <Rbt.Current_Directory>
/home/hitesit/Python_Packages/Docking_Pipelines/HandsFreeDocking/Prototypes

>  <Rbt.Executable>
rbdock/0.1.0

>  <Rbt.Library>
librxdock.so/0.1.0

>  <Rbt.Parameter_File>
/home/hitesit/Software/rxdock/rxdock_installation/data/scripts/dock.prm

>  <Rbt.Receptor>
probe.prmtop

>  <SCORE>
-13.8654

>  <SCORE.INTER>
-9.81934

>  <SCORE.INTER.CONST>
1

>  <SCORE.INTER.POLAR>
-1.74392

>  <SCORE.INTER.REPUL>
0.0270934

>  <SCORE.INTER.ROT>
4

>  <SCORE.INTER.VDW>
-13.4255

>  <SCORE.INTER.norm>
-0.577608

>  <SCORE.INTRA>
-4.0461

>  <SCORE.INTRA.DIHEDRAL>
-8.61021

>  <SCORE.INTRA.DIHEDRAL.0>
10.682

>  <SCORE.INTRA.POLAR>
0

>  <SCORE.INTRA.POLAR.0>
0

>  <SCORE.INTRA.REPUL>
0

>  <SCORE.INTRA.REPUL.0>
0

>  <SCORE.INTRA.VDW>
0.259007

>  <SCORE.INTRA.VDW.0>
-0.0324487

>  <SCORE.INTRA.norm>
-0.238006

>  <SCORE.RESTR>
0

>  <SCORE.RESTR.CAVITY>
0

>  <SCORE.RESTR.norm>
0

>  <SCORE.SYSTEM>
0

>  <SCORE.SYSTEM.CONST>
0

>  <SCORE.SYSTEM.DIHEDRAL>
0

>  <SCORE.SYSTEM.norm>
0

>  <SCORE.heavy>
17

>  <SCORE.norm>
-0.815614

$$$$
ligand
  RxDock  05162517583D
librxdock.so/0.1.0
 18 19  0  0  0  0  0  0  0  0999 V2000
  -53.8096   52.2124  -17.1424 C   0  0  0  0  0  0
  -54.3231   53.0597  -18.1274 C   0  0  0  0  0  0
  -53.7337   53.1284  -19.3984 C   0  0  0  0  0  0
  -52.6132   52.3549  -19.7385 C   0  0  0  0  0  0
  -52.1316   51.5022  -18.7265 C   0  0  0  0  0  0
  -52.7072   51.4164  -17.4514 C   0  0  0  0  0  0
  -54.4226   51.0156  -15.2421 O   0  5  0  0  0  0
  -54.4317   52.1472  -15.8143 C   0  0  0  0  0  0
  -54.9262   53.2254  -15.3674 O   0  0  0  0  0  0
  -54.3389   54.0300  -20.3578 C   0  0  0  0  0  0
  -53.8778   54.2243  -21.6016 C   0  0  0  0  0  0
  -50.9522   50.6501  -19.0282 C   0  0  0  0  0  0
  -49.8512   50.8817  -18.0804 C   0  0  0  0  0  0
  -49.7109   51.9109  -17.2777 N   0  0  0  0  0  0
  -48.5431   51.6923  -16.5915 N   0  0  0  0  0  0
  -47.9779   50.5510  -16.9614 N   0  0  0  0  0  0
  -48.7859   50.0339  -17.9123 N   0  0  0  0  0  0
  -48.6290   49.1536  -18.4236 H   0  0  0  0  0  0
  1  2  2  0  0  0
  2  3  1  0  0  0
  3  4  2  0  0  0
  3 10  1  0  0  0
  4  5  1  0  0  0
  5  6  2  0  0  0
  5 12  1  0  0  0
  1  6  1  0  0  0
  7  8  1  0  0  0
  1  8  1  0  0  0
  8  9  2  0  0  0
 10 11  2  0  0  0
 12 13  1  0  0  0
 13 14  2  0  0  0
 14 15  1  0  0  0
 15 16  2  0  0  0
 16 17  1  0  0  0
 13 17  1  0  0  0
 17 18  1  0  0  0
M  END
>  <CHROM.1>
178.72433893,123.16325434,145.53336092,-16.97708024,-52.16318118,51.98066134
-17.87471328,2.88775655,0.34371539,-1.26577436

>  <Name>
ligand

>  <RI>
80

>  <Rbt.Current_Directory>
/home/hitesit/Python_Packages/Docking_Pipelines/HandsFreeDocking/Prototypes

>  <Rbt.Executable>
rbdock/0.1.0

>  <Rbt.Library>
librxdock.so/0.1.0

>  <Rbt.Parameter_File>
/home/hitesit/Software/rxdock/rxdock_installation/data/scripts/dock.prm

>  <Rbt.Receptor>
probe.prmtop

>  <SCORE>
-19.3047

>  <SCORE.INTER>
-17.2564

>  <SCORE.INTER.CONST>
1

>  <SCORE.INTER.POLAR>
-2.76077

>  <SCORE.INTER.REPUL>
0

>  <SCORE.INTER.ROT>
4

>  <SCORE.INTER.VDW>
-17.2698

>  <SCORE.INTER.norm>
-1.01508

>  <SCORE.INTRA>
-2.04833

>  <SCORE.INTRA.DIHEDRAL>
-4.66434

>  <SCORE.INTRA.DIHEDRAL.0>
10.682

>  <SCORE.INTRA.POLAR>
0

>  <SCORE.INTRA.POLAR.0>
0

>  <SCORE.INTRA.REPUL>
0

>  <SCORE.INTRA.REPUL.0>
0

>  <SCORE.INTRA.VDW>
0.283838

>  <SCORE.INTRA.VDW.0>
-0.0324487

>  <SCORE.INTRA.norm>
-0.12049

>  <SCORE.RESTR>
0

>  <SCORE.RESTR.CAVITY>
0

>  <SCORE.RESTR.norm>
0

>  <SCORE.SYSTEM>
0

>  <SCORE.SYSTEM.CONST>
0

>  <SCORE.SYSTEM.DIHEDRAL>
0

>  <SCORE.SYSTEM.norm>
0

>  <SCORE.heavy>
17

>  <SCORE.norm>
-1.13557

$$$$
ligand
  RxDock  05162517583D
librxdock.so/0.1.0
 18 19  0  0  0  0  0  0  0  0999 V2000
  -53.6912   53.4665  -19.7839 C   0  0  0  0  0  0
  -54.4276   53.3729  -18.6004 C   0  0  0  0  0  0
  -54.0765   52.4504  -17.6037 C   0  0  0  0  0  0
  -52.9783   51.5882  -17.7454 C   0  0  0  0  0  0
  -52.2508   51.7202  -18.9440 C   0  0  0  0  0  0
  -52.5829   52.6369  -19.9509 C   0  0  0  0  0  0
  -53.1307   54.8456  -21.5736 O   0  5  0  0  0  0
  -54.0658   54.4339  -20.8226 C   0  0  0  0  0  0
  -55.2865   54.7727  -20.8666 O   0  0  0  0  0  0
  -54.8939   52.4296  -16.4074 C   0  0  0  0  0  0
  -54.6413   51.6621  -15.3375 C   0  0  0  0  0  0
  -51.0705   50.8412  -19.1498 C   0  0  0  0  0  0
  -50.0322   51.0700  -18.1332 C   0  0  0  0  0  0
  -49.9171   52.1188  -17.3520 N   0  0  0  0  0  0
  -48.8075   51.8878  -16.5787 N   0  0  0  0  0  0
  -48.2530   50.7201  -16.8750 N   0  0  0  0  0  0
  -49.0078   50.1976  -17.8658 N   0  0  0  0  0  0
  -48.8425   49.2980  -18.3396 H   0  0  0  0  0  0
  1  2  2  0  0  0
  2  3  1  0  0  0
  3  4  2  0  0  0
  3 10  1  0  0  0
  4  5  1  0  0  0
  5  6  2  0  0  0
  5 12  1  0  0  0
  1  6  1  0  0  0
  7  8  1  0  0  0
  1  8  1  0  0  0
  8  9  2  0  0  0
 10 11  2  0  0  0
 12 13  1  0  0  0
 13 14  2  0  0  0
 14 15  1  0  0  0
 15 16  2  0  0  0
 16 17  1  0  0  0
 13 17  1  0  0  0
 17 18  1  0  0  0
M  END
>  <CHROM.1>
-175.99011837,-61.88286745,152.81840395,-17.89404627,-52.27163982,52.38049326
-18.47211230,-2.52177888,-0.28659532,2.03659229

>  <Name>
ligand

>  <RI>
80

>  <Rbt.Current_Directory>
/home/hitesit/Python_Packages/Docking_Pipelines/HandsFreeDocking/Prototypes

>  <Rbt.Executable>
rbdock/0.1.0

>  <Rbt.Library>
librxdock.so/0.1.0

>  <Rbt.Parameter_File>
/home/hitesit/Software/rxdock/rxdock_installation/data/scripts/dock.prm

>  <Rbt.Receptor>
probe.prmtop

>  <SCORE>
-21.08

>  <SCORE.INTER>
-18.3399

>  <SCORE.INTER.CONST>
1

>  <SCORE.INTER.POLAR>
-3.00708

>  <SCORE.INTER.REPUL>
0

>  <SCORE.INTER.ROT>
4

>  <SCORE.INTER.VDW>
-17.5158

>  <SCORE.INTER.norm>
-1.07882

>  <SCORE.INTRA>
-2.74016

>  <SCORE.INTRA.DIHEDRAL>
-6.02791

>  <SCORE.INTRA.DIHEDRAL.0>
10.682

>  <SCORE.INTRA.POLAR>
0

>  <SCORE.INTRA.POLAR.0>
0

>  <SCORE.INTRA.REPUL>
0

>  <SCORE.INTRA.REPUL.0>
0

>  <SCORE.INTRA.VDW>
0.273798

>  <SCORE.INTRA.VDW.0>
-0.0324487

>  <SCORE.INTRA.norm>
-0.161186

>  <SCORE.RESTR>
0

>  <SCORE.RESTR.CAVITY>
0

>  <SCORE.RESTR.norm>
0

>  <SCORE.SYSTEM>
0

>  <SCORE.SYSTEM.CONST>
0

>  <SCORE.SYSTEM.DIHEDRAL>
0

>  <SCORE.SYSTEM.norm>
0

>  <SCORE.heavy>
17

>  <SCORE.norm>
-1.24

$$$$
ligand
  RxDock  05162517583D
librxdock.so/0.1.0
 18 19  0  0  0  0  0  0  0  0999 V2000
  -55.5152   52.4140  -18.9473 C   0  0  0  0  0  0
  -55.2764   53.1228  -20.1273 C   0  0  0  0  0  0
  -53.9702   53.4503  -20.5199 C   0  0  0  0  0  0
  -52.8523   53.0829  -19.7553 C   0  0  0  0  0  0
  -53.1295   52.3575  -18.5805 C   0  0  0  0  0  0
  -54.4263   52.0177  -18.1716 C   0  0  0  0  0  0
  -57.8034   52.3559  -19.3717 O   0  5  0  0  0  0
  -56.8853   52.0761  -18.5428 C   0  0  0  0  0  0
  -57.0233   51.5440  -17.4007 O   0  0  0  0  0  0
  -53.8189   54.1808  -21.7622 C   0  0  0  0  0  0
  -54.8442   54.6040  -22.5152 C   0  0  0  0  0  0
  -51.9865   51.9311  -17.7320 C   0  0  0  0  0  0
  -51.0731   51.0316  -18.4535 C   0  0  0  0  0  0
  -49.7834   51.2011  -18.6308 N   0  0  0  0  0  0
  -49.3612   50.1164  -19.3573 N   0  0  0  0  0  0
  -50.3688   49.2947  -19.6188 N   0  0  0  0  0  0
  -51.4604   49.8668  -19.0660 N   0  0  0  0  0  0
  -52.4194   49.4925  -19.0987 H   0  0  0  0  0  0
  1  2  2  0  0  0
  2  3  1  0  0  0
  3  4  2  0  0  0
  3 10  1  0  0  0
  4  5  1  0  0  0
  5  6  2  0  0  0
  5 12  1  0  0  0
  1  6  1  0  0  0
  7  8  1  0  0  0
  1  8  1  0  0  0
  8  9  2  0  0  0
 10 11  2  0  0  0
 12 13  1  0  0  0
 13 14  2  0  0  0
 14 15  1  0  0  0
 15 16  2  0  0  0
 16 17  1  0  0  0
 13 17  1  0  0  0
 17 18  1  0  0  0
M  END
>  <CHROM.1>
2.95610132,-61.29601381,6.01151005,124.23333912,-53.53109062,51.99734446
-19.31244588,2.83396953,0.23441827,-0.86553179

>  <Name>
ligand

>  <RI>
80

>  <Rbt.Current_Directory>
/home/hitesit/Python_Packages/Docking_Pipelines/HandsFreeDocking/Prototypes

>  <Rbt.Executable>
rbdock/0.1.0

>  <Rbt.Library>
librxdock.so/0.1.0

>  <Rbt.Parameter_File>
/home/hitesit/Software/rxdock/rxdock_installation/data/scripts/dock.prm

>  <Rbt.Receptor>
probe.prmtop

>  <SCORE>
-12.944

>  <SCORE.INTER>
-9.56341

>  <SCORE.INTER.CONST>
1

>  <SCORE.INTER.POLAR>
-1.34343

>  <SCORE.INTER.REPUL>
0.00373783

>  <SCORE.INTER.ROT>
4

>  <SCORE.INTER.VDW>
-14.4144

>  <SCORE.INTER.norm>
-0.562553

>  <SCORE.INTRA>
-3.38061

>  <SCORE.INTRA.DIHEDRAL>
-8.41986

>  <SCORE.INTRA.DIHEDRAL.0>
10.682

>  <SCORE.INTRA.POLAR>
0

>  <SCORE.INTRA.POLAR.0>
0

>  <SCORE.INTRA.REPUL>
0

>  <SCORE.INTRA.REPUL.0>
0

>  <SCORE.INTRA.VDW>
0.829316

>  <SCORE.INTRA.VDW.0>
-0.0324487

>  <SCORE.INTRA.norm>
-0.19886

>  <SCORE.RESTR>
0

>  <SCORE.RESTR.CAVITY>
0

>  <SCORE.RESTR.norm>
0

>  <SCORE.SYSTEM>
0

>  <SCORE.SYSTEM.CONST>
0

>  <SCORE.SYSTEM.DIHEDRAL>
0

>  <SCORE.SYSTEM.norm>
0

>  <SCORE.heavy>
17

>  <SCORE.norm>
-0.761413

$$$$
ligand
  RxDock  05162517583D
librxdock.so/0.1.0
 18 19  0  0  0  0  0  0  0  0999 V2000
  -54.1174   53.3921  -19.8242 C   0  0  0  0  0  0
  -55.1778   53.2239  -18.9304 C   0  0  0  0  0  0
  -54.9653   52.6859  -17.6525 C   0  0  0  0  0  0
  -53.6898   52.2977  -17.2145 C   0  0  0  0  0  0
  -52.6431   52.4949  -18.1357 C   0  0  0  0  0  0
  -52.8334   53.0331  -19.4158 C   0  0  0  0  0  0
  -53.3216   54.3481  -21.7919 O   0  5  0  0  0  0
  -54.3484   53.9548  -21.1603 C   0  0  0  0  0  0
  -55.5523   54.0021  -21.5540 O   0  0  0  0  0  0
  -56.1234   52.5551  -16.7914 C   0  0  0  0  0  0
  -57.3894   52.7070  -17.2057 C   0  0  0  0  0  0
  -51.2666   52.1120  -17.7276 C   0  0  0  0  0  0
  -50.7903   50.9233  -18.4515 C   0  0  0  0  0  0
  -49.6563   50.8034  -19.1020 N   0  0  0  0  0  0
  -49.6514   49.5293  -19.6111 N   0  0  0  0  0  0
  -50.7572   48.8773  -19.2785 N   0  0  0  0  0  0
  -51.4935   49.7502  -18.5570 N   0  0  0  0  0  0
  -52.4239   49.5664  -18.1549 H   0  0  0  0  0  0
  1  2  2  0  0  0
  2  3  1  0  0  0
  3  4  2  0  0  0
  3 10  1  0  0  0
  4  5  1  0  0  0
  5  6  2  0  0  0
  5 12  1  0  0  0
  1  6  1  0  0  0
  7  8  1  0  0  0
  1  8  1  0  0  0
  8  9  2  0  0  0
 10 11  2  0  0  0
 12 13  1  0  0  0
 13 14  2  0  0  0
 14 15  1  0  0  0
 15 16  2  0  0  0
 16 17  1  0  0  0
 13 17  1  0  0  0
 17 18  1  0  0  0
M  END
>  <CHROM.1>
11.24478887,109.51252094,164.89477093,128.65577762,-53.15105941,52.14813203
-19.01985710,-2.82873358,-0.48734081,2.10309030

>  <Name>
ligand

>  <RI>
80

>  <Rbt.Current_Directory>
/home/hitesit/Python_Packages/Docking_Pipelines/HandsFreeDocking/Prototypes

>  <Rbt.Executable>
rbdock/0.1.0

>  <Rbt.Library>
librxdock.so/0.1.0

>  <Rbt.Parameter_File>
/home/hitesit/Software/rxdock/rxdock_installation/data/scripts/dock.prm

>  <Rbt.Receptor>
probe.prmtop

>  <SCORE>
-15.2071

>  <SCORE.INTER>
-12.1021

>  <SCORE.INTER.CONST>
1

>  <SCORE.INTER.POLAR>
-1.74088

>  <SCORE.INTER.REPUL>
0.0309848

>  <SCORE.INTER.ROT>
4

>  <SCORE.INTER.VDW>
-15.738

>  <SCORE.INTER.norm>
-0.711888

>  <SCORE.INTRA>
-3.10498

>  <SCORE.INTRA.DIHEDRAL>
-7.35393

>  <SCORE.INTRA.DIHEDRAL.0>
10.682

>  <SCORE.INTRA.POLAR>
0

>  <SCORE.INTRA.POLAR.0>
0

>  <SCORE.INTRA.REPUL>
0

>  <SCORE.INTRA.REPUL.0>
0

>  <SCORE.INTRA.VDW>
0.571982

>  <SCORE.INTRA.VDW.0>
-0.0324487

>  <SCORE.INTRA.norm>
-0.182646

>  <SCORE.RESTR>
0

>  <SCORE.RESTR.CAVITY>
0

>  <SCORE.RESTR.norm>
0

>  <SCORE.SYSTEM>
0

>  <SCORE.SYSTEM.CONST>
0

>  <SCORE.SYSTEM.DIHEDRAL>
0

>  <SCORE.SYSTEM.norm>
0

>  <SCORE.heavy>
17

>  <SCORE.norm>
-0.894534

$$$$
ligand
  RxDock  05162517583D
librxdock.so/0.1.0
 18 19  0  0  0  0  0  0  0  0999 V2000
  -51.0873   50.9482  -18.4302 C   0  0  0  0  0  0
  -51.2928   51.1219  -17.0594 C   0  0  0  0  0  0
  -52.5233   51.5817  -16.5672 C   0  0  0  0  0  0
  -53.5965   51.8833  -17.4197 C   0  0  0  0  0  0
  -53.3585   51.6828  -18.7932 C   0  0  0  0  0  0
  -52.1379   51.2218  -19.3053 C   0  0  0  0  0  0
  -48.8754   50.3130  -18.0792 O   0  5  0  0  0  0
  -49.7961   50.4677  -18.9373 C   0  0  0  0  0  0
  -49.7201   50.2601  -20.1854 O   0  0  0  0  0  0
  -52.6467   51.7246  -15.1305 C   0  0  0  0  0  0
  -53.7977   51.9933  -14.4979 C   0  0  0  0  0  0
  -54.4595   51.9756  -19.7471 C   0  0  0  0  0  0
  -54.1493   53.1290  -20.6058 C   0  0  0  0  0  0
  -54.9243   53.6509  -21.5281 N   0  0  0  0  0  0
  -54.2161   54.6980  -22.0615 N   0  0  0  0  0  0
  -53.0315   54.8204  -21.4779 N   0  0  0  0  0  0
  -52.9690   53.8267  -20.5651 N   0  0  0  0  0  0
  -52.1714   53.6271  -19.9445 H   0  0  0  0  0  0
  1  2  2  0  0  0
  2  3  1  0  0  0
  3  4  2  0  0  0
  3 10  1  0  0  0
  4  5  1  0  0  0
  5  6  2  0  0  0
  5 12  1  0  0  0
  1  6  1  0  0  0
  7  8  1  0  0  0
  1  8  1  0  0  0
  8  9  2  0  0  0
 10 11  2  0  0  0
 12 13  1  0  0  0
 13 14  2  0  0  0
 14 15  1  0  0  0
 15 16  2  0  0  0
 16 17  1  0  0  0
 13 17  1  0  0  0
 17 18  1  0  0  0
M  END
>  <CHROM.1>
-171.52925915,112.81441895,-4.57132764,-178.64077940,-52.46338459,52.08462844
-18.89173750,-0.98510789,0.52187648,-1.27889421

>  <Name>
ligand

>  <RI>
80

>  <Rbt.Current_Directory>
/home/hitesit/Python_Packages/Docking_Pipelines/HandsFreeDocking/Prototypes

>  <Rbt.Executable>
rbdock/0.1.0

>  <Rbt.Library>
librxdock.so/0.1.0

>  <Rbt.Parameter_File>
/home/hitesit/Software/rxdock/rxdock_installation/data/scripts/dock.prm

>  <Rbt.Receptor>
probe.prmtop

>  <SCORE>
-18.3443

>  <SCORE.INTER>
-14.8797

>  <SCORE.INTER.CONST>
1

>  <SCORE.INTER.POLAR>
-2.94542

>  <SCORE.INTER.REPUL>
0.0424616

>  <SCORE.INTER.ROT>
4

>  <SCORE.INTER.VDW>
-14.4776

>  <SCORE.INTER.norm>
-0.875276

>  <SCORE.INTRA>
-3.46461

>  <SCORE.INTRA.DIHEDRAL>
-8.30313

>  <SCORE.INTRA.DIHEDRAL.0>
10.682

>  <SCORE.INTRA.POLAR>
0

>  <SCORE.INTRA.POLAR.0>
0

>  <SCORE.INTRA.REPUL>
0

>  <SCORE.INTRA.REPUL.0>
0

>  <SCORE.INTRA.VDW>
0.686958

>  <SCORE.INTRA.VDW.0>
-0.0324487

>  <SCORE.INTRA.norm>
-0.2038

>  <SCORE.RESTR>
0

>  <SCORE.RESTR.CAVITY>
0

>  <SCORE.RESTR.norm>
0

>  <SCORE.SYSTEM>
0

>  <SCORE.SYSTEM.CONST>
0

>  <SCORE.SYSTEM.DIHEDRAL>
0

>  <SCORE.SYSTEM.norm>
0

>  <SCORE.heavy>
17

>  <SCORE.norm>
-1.07908

$$$$
ligand
  RxDock  05162517583D
librxdock.so/0.1.0
 18 19  0  0  0  0  0  0  0  0999 V2000
  -53.6309   52.0920  -17.4402 C   0  0  0  0  0  0
  -52.4111   51.4987  -17.7746 C   0  0  0  0  0  0
  -51.9832   51.4326  -19.1088 C   0  0  0  0  0  0
  -52.7510   51.9566  -20.1602 C   0  0  0  0  0  0
  -53.9670   52.5597  -19.7849 C   0  0  0  0  0  0
  -54.4117   52.6386  -18.4580 C   0  0  0  0  0  0
  -53.9323   51.0979  -15.3569 O   0  5  0  0  0  0
  -54.0721   52.1561  -16.0415 C   0  0  0  0  0  0
  -54.5583   53.2598  -15.6513 O   0  0  0  0  0  0
  -50.7012   50.8054  -19.3596 C   0  0  0  0  0  0
  -49.9185   50.2857  -18.4032 C   0  0  0  0  0  0
  -54.8213   53.1418  -20.8523 C   0  0  0  0  0  0
  -54.2845   54.4178  -21.3498 C   0  0  0  0  0  0
  -53.0686   54.8797  -21.1718 N   0  0  0  0  0  0
  -53.0337   56.0938  -21.8101 N   0  0  0  0  0  0
  -54.2023   56.3721  -22.3720 N   0  0  0  0  0  0
  -55.0076   55.3283  -22.0778 N   0  0  0  0  0  0
  -55.9956   55.2325  -22.3530 H   0  0  0  0  0  0
  1  2  2  0  0  0
  2  3  1  0  0  0
  3  4  2  0  0  0
  3 10  1  0  0  0
  4  5  1  0  0  0
  5  6  2  0  0  0
  5 12  1  0  0  0
  1  6  1  0  0  0
  7  8  1  0  0  0
  1  8  1  0  0  0
  8  9  2  0  0  0
 10 11  2  0  0  0
 12 13  1  0  0  0
 13 14  2  0  0  0
 14 15  1  0  0  0
 15 16  2  0  0  0
 16 17  1  0  0  0
 13 17  1  0  0  0
 17 18  1  0  0  0
M  END
>  <CHROM.1>
0.43902333,-75.10690258,-44.71316725,16.12702027,-53.36825510,52.97759960
-19.22121714,1.32820397,-0.64655195,2.09274302

>  <Name>
ligand

>  <RI>
80

>  <Rbt.Current_Directory>
/home/hitesit/Python_Packages/Docking_Pipelines/HandsFreeDocking/Prototypes

>  <Rbt.Executable>
rbdock/0.1.0

>  <Rbt.Library>
librxdock.so/0.1.0

>  <Rbt.Parameter_File>
/home/hitesit/Software/rxdock/rxdock_installation/data/scripts/dock.prm

>  <Rbt.Receptor>
probe.prmtop

>  <SCORE>
-17.8733

>  <SCORE.INTER>
-17.1042

>  <SCORE.INTER.CONST>
1

>  <SCORE.INTER.POLAR>
-2.73392

>  <SCORE.INTER.REPUL>
0

>  <SCORE.INTER.ROT>
4

>  <SCORE.INTER.VDW>
-17.2089

>  <SCORE.INTER.norm>
-1.00613

>  <SCORE.INTRA>
-0.769114

>  <SCORE.INTRA.DIHEDRAL>
-2.42552

>  <SCORE.INTRA.DIHEDRAL.0>
10.682

>  <SCORE.INTRA.POLAR>
0

>  <SCORE.INTRA.POLAR.0>
0

>  <SCORE.INTRA.REPUL>
0

>  <SCORE.INTRA.REPUL.0>
0

>  <SCORE.INTRA.VDW>
0.443647

>  <SCORE.INTRA.VDW.0>
-0.0324487

>  <SCORE.INTRA.norm>
-0.045242

>  <SCORE.RESTR>
0

>  <SCORE.RESTR.CAVITY>
0

>  <SCORE.RESTR.norm>
0

>  <SCORE.SYSTEM>
0

>  <SCORE.SYSTEM.CONST>
0

>  <SCORE.SYSTEM.DIHEDRAL>
0

>  <SCORE.SYSTEM.norm>
0

>  <SCORE.heavy>
17

>  <SCORE.norm>
-1.05137

$$$$
ligand
  RxDock  05162517583D
librxdock.so/0.1.0
 18 19  0  0  0  0  0  0  0  0999 V2000
  -53.9653   52.5060  -17.9557 C   0  0  0  0  0  0
  -54.1623   53.2598  -19.1153 C   0  0  0  0  0  0
  -53.3479   53.0752  -20.2424 C   0  0  0  0  0  0
  -52.3088   52.1322  -20.2595 C   0  0  0  0  0  0
  -52.1485   51.3808  -19.0793 C   0  0  0  0  0  0
  -52.9527   51.5474  -17.9435 C   0  0  0  0  0  0
  -54.5215   52.0392  -15.7440 O   0  5  0  0  0  0
  -54.8213   52.7060  -16.7800 C   0  0  0  0  0  0
  -55.7839   53.5200  -16.9127 O   0  0  0  0  0  0
  -53.6309   53.8970  -21.4018 C   0  0  0  0  0  0
  -54.5383   54.8838  -21.4207 C   0  0  0  0  0  0
  -51.0705   50.3589  -19.0381 C   0  0  0  0  0  0
  -49.9986   50.7295  -18.1012 C   0  0  0  0  0  0
  -49.9644   51.7905  -17.3288 N   0  0  0  0  0  0
  -48.7799   51.7128  -16.6407 N   0  0  0  0  0  0
  -48.1007   50.6255  -16.9797 N   0  0  0  0  0  0
  -48.8518   50.0008  -17.9125 N   0  0  0  0  0  0
  -48.6056   49.1269  -18.3989 H   0  0  0  0  0  0
  1  2  2  0  0  0
  2  3  1  0  0  0
  3  4  2  0  0  0
  3 10  1  0  0  0
  4  5  1  0  0  0
  5  6  2  0  0  0
  5 12  1  0  0  0
  1  6  1  0  0  0
  7  8  1  0  0  0
  1  8  1  0  0  0
  8  9  2  0  0  0
 10 11  2  0  0  0
 12 13  1  0  0  0
 13 14  2  0  0  0
 14 15  1  0  0  0
 15 16  2  0  0  0
 16 17  1  0  0  0
 13 17  1  0  0  0
 17 18  1  0  0  0
M  END
>  <CHROM.1>
5.72143902,111.97041108,-175.80861674,2.59710096,-52.28328283,52.11766604
-18.34424671,2.77980869,0.38555031,-1.29544631

>  <Name>
ligand

>  <RI>
80

>  <Rbt.Current_Directory>
/home/hitesit/Python_Packages/Docking_Pipelines/HandsFreeDocking/Prototypes

>  <Rbt.Executable>
rbdock/0.1.0

>  <Rbt.Library>
librxdock.so/0.1.0

>  <Rbt.Parameter_File>
/home/hitesit/Software/rxdock/rxdock_installation/data/scripts/dock.prm

>  <Rbt.Receptor>
probe.prmtop

>  <SCORE>
-18.88

>  <SCORE.INTER>
-15.7915

>  <SCORE.INTER.CONST>
1

>  <SCORE.INTER.POLAR>
-1.92331

>  <SCORE.INTER.REPUL>
0

>  <SCORE.INTER.ROT>
4

>  <SCORE.INTER.VDW>
-18.6522

>  <SCORE.INTER.norm>
-0.928911

>  <SCORE.INTRA>
-3.0885

>  <SCORE.INTRA.DIHEDRAL>
-8.41383

>  <SCORE.INTRA.DIHEDRAL.0>
10.682

>  <SCORE.INTRA.POLAR>
0

>  <SCORE.INTRA.POLAR.0>
0

>  <SCORE.INTRA.REPUL>
0

>  <SCORE.INTRA.REPUL.0>
0

>  <SCORE.INTRA.VDW>
1.11842

>  <SCORE.INTRA.VDW.0>
-0.0324487

>  <SCORE.INTRA.norm>
-0.181676

>  <SCORE.RESTR>
0

>  <SCORE.RESTR.CAVITY>
0

>  <SCORE.RESTR.norm>
0

>  <SCORE.SYSTEM>
0

>  <SCORE.SYSTEM.CONST>
0

>  <SCORE.SYSTEM.DIHEDRAL>
0

>  <SCORE.SYSTEM.norm>
0

>  <SCORE.heavy>
17

>  <SCORE.norm>
-1.11059

$$$$
ligand
  RxDock  05162517583D
librxdock.so/0.1.0
 18 19  0  0  0  0  0  0  0  0999 V2000
  -51.5947   52.0147  -20.9789 C   0  0  0  0  0  0
  -52.3153   53.0025  -21.6546 C   0  0  0  0  0  0
  -53.6279   53.3227  -21.2775 C   0  0  0  0  0  0
  -54.2721   52.6745  -20.2125 C   0  0  0  0  0  0
  -53.5110   51.6952  -19.5454 C   0  0  0  0  0  0
  -52.1977   51.3621  -19.9043 C   0  0  0  0  0  0
  -49.7108   52.4071  -22.2889 O   0  5  0  0  0  0
  -50.2218   51.6847  -21.3806 C   0  0  0  0  0  0
  -49.6788   50.7046  -20.7880 O   0  0  0  0  0  0
  -54.2946   54.3653  -22.0313 C   0  0  0  0  0  0
  -55.5144   54.8400  -21.7412 C   0  0  0  0  0  0
  -54.1344   50.9791  -18.4023 C   0  0  0  0  0  0
  -54.4380   51.8874  -17.2857 C   0  0  0  0  0  0
  -53.5725   52.5699  -16.5724 N   0  0  0  0  0  0
  -54.3146   53.2678  -15.6533 N   0  0  0  0  0  0
  -55.6097   53.0229  -15.7996 N   0  0  0  0  0  0
  -55.7026   52.1411  -16.8186 N   0  0  0  0  0  0
  -56.5739   51.7297  -17.1826 H   0  0  0  0  0  0
  1  2  2  0  0  0
  2  3  1  0  0  0
  3  4  2  0  0  0
  3 10  1  0  0  0
  4  5  1  0  0  0
  5  6  2  0  0  0
  5 12  1  0  0  0
  1  6  1  0  0  0
  7  8  1  0  0  0
  1  8  1  0  0  0
  8  9  2  0  0  0
 10 11  2  0  0  0
 12 13  1  0  0  0
 13 14  2  0  0  0
 14 15  1  0  0  0
 15 16  2  0  0  0
 16 17  1  0  0  0
 13 17  1  0  0  0
 17 18  1  0  0  0
M  END
>  <CHROM.1>
-175.71986632,-64.05542127,5.15100068,-63.51169529,-53.19466116,52.45660036
-19.52553132,-0.77816996,-0.50095644,1.93663898

>  <Name>
ligand

>  <RI>
80

>  <Rbt.Current_Directory>
/home/hitesit/Python_Packages/Docking_Pipelines/HandsFreeDocking/Prototypes

>  <Rbt.Executable>
rbdock/0.1.0

>  <Rbt.Library>
librxdock.so/0.1.0

>  <Rbt.Parameter_File>
/home/hitesit/Software/rxdock/rxdock_installation/data/scripts/dock.prm

>  <Rbt.Receptor>
probe.prmtop

>  <SCORE>
-12.2529

>  <SCORE.INTER>
-8.4118

>  <SCORE.INTER.CONST>
1

>  <SCORE.INTER.POLAR>
-1.61972

>  <SCORE.INTER.REPUL>
0.00399988

>  <SCORE.INTER.ROT>
4

>  <SCORE.INTER.VDW>
-12.3247

>  <SCORE.INTER.norm>
-0.494812

>  <SCORE.INTRA>
-3.8411

>  <SCORE.INTRA.DIHEDRAL>
-8.42741

>  <SCORE.INTRA.DIHEDRAL.0>
10.682

>  <SCORE.INTRA.POLAR>
0

>  <SCORE.INTRA.POLAR.0>
0

>  <SCORE.INTRA.REPUL>
0

>  <SCORE.INTRA.REPUL.0>
0

>  <SCORE.INTRA.VDW>
0.372606

>  <SCORE.INTRA.VDW.0>
-0.0324487

>  <SCORE.INTRA.norm>
-0.225947

>  <SCORE.RESTR>
0

>  <SCORE.RESTR.CAVITY>
0

>  <SCORE.RESTR.norm>
0

>  <SCORE.SYSTEM>
0

>  <SCORE.SYSTEM.CONST>
0

>  <SCORE.SYSTEM.DIHEDRAL>
0

>  <SCORE.SYSTEM.norm>
0

>  <SCORE.heavy>
17

>  <SCORE.norm>
-0.720759

$$$$
ligand
  RxDock  05162517583D
librxdock.so/0.1.0
 18 19  0  0  0  0  0  0  0  0999 V2000
  -55.8729   51.8000  -17.6870 C   0  0  0  0  0  0
  -56.4364   50.5217  -17.6995 C   0  0  0  0  0  0
  -56.8327   49.9202  -18.9031 C   0  0  0  0  0  0
  -56.6810   50.5661  -20.1397 C   0  0  0  0  0  0
  -56.0966   51.8465  -20.0905 C   0  0  0  0  0  0
  -55.6912   52.4642  -18.8995 C   0  0  0  0  0  0
  -55.8493   51.8508  -15.3597 O   0  5  0  0  0  0
  -55.4617   52.4230  -16.4229 C   0  0  0  0  0  0
  -54.7650   53.4781  -16.5122 O   0  0  0  0  0  0
  -57.4008   48.5898  -18.8193 C   0  0  0  0  0  0
  -57.5884   47.9232  -17.6714 C   0  0  0  0  0  0
  -55.9003   52.5787  -21.3686 C   0  0  0  0  0  0
  -54.6310   53.3219  -21.3859 C   0  0  0  0  0  0
  -53.4230   52.8098  -21.4313 N   0  0  0  0  0  0
  -52.5641   53.8798  -21.4278 N   0  0  0  0  0  0
  -53.2290   55.0264  -21.3845 N   0  0  0  0  0  0
  -54.5365   54.6898  -21.3434 N   0  0  0  0  0  0
  -55.3272   55.3477  -21.2894 H   0  0  0  0  0  0
  1  2  2  0  0  0
  2  3  1  0  0  0
  3  4  2  0  0  0
  3 10  1  0  0  0
  4  5  1  0  0  0
  5  6  2  0  0  0
  5 12  1  0  0  0
  1  6  1  0  0  0
  7  8  1  0  0  0
  1  8  1  0  0  0
  8  9  2  0  0  0
 10 11  2  0  0  0
 12 13  1  0  0  0
 13 14  2  0  0  0
 14 15  1  0  0  0
 15 16  2  0  0  0
 16 17  1  0  0  0
 13 17  1  0  0  0
 17 18  1  0  0  0
M  END
>  <CHROM.1>
1.28392764,-141.59427216,-11.62500825,69.24310980,-55.43281330,52.03827340
-19.17992552,-2.60477876,-0.99156027,-1.70623936

>  <Name>
ligand

>  <RI>
80

>  <Rbt.Current_Directory>
/home/hitesit/Python_Packages/Docking_Pipelines/HandsFreeDocking/Prototypes

>  <Rbt.Executable>
rbdock/0.1.0

>  <Rbt.Library>
librxdock.so/0.1.0

>  <Rbt.Parameter_File>
/home/hitesit/Software/rxdock/rxdock_installation/data/scripts/dock.prm

>  <Rbt.Receptor>
probe.prmtop

>  <SCORE>
-14.0784

>  <SCORE.INTER>
-11.3153

>  <SCORE.INTER.CONST>
1

>  <SCORE.INTER.POLAR>
-2.73388

>  <SCORE.INTER.REPUL>
0.00100404

>  <SCORE.INTER.ROT>
4

>  <SCORE.INTER.VDW>
-11.4252

>  <SCORE.INTER.norm>
-0.665608

>  <SCORE.INTRA>
-2.76305

>  <SCORE.INTRA.DIHEDRAL>
-8.16401

>  <SCORE.INTRA.DIHEDRAL.0>
10.682

>  <SCORE.INTRA.POLAR>
0

>  <SCORE.INTRA.POLAR.0>
0

>  <SCORE.INTRA.REPUL>
0

>  <SCORE.INTRA.REPUL.0>
0

>  <SCORE.INTRA.VDW>
1.31896

>  <SCORE.INTRA.VDW.0>
-0.0324487

>  <SCORE.INTRA.norm>
-0.162532

>  <SCORE.RESTR>
0

>  <SCORE.RESTR.CAVITY>
0

>  <SCORE.RESTR.norm>
0

>  <SCORE.SYSTEM>
0

>  <SCORE.SYSTEM.CONST>
0

>  <SCORE.SYSTEM.DIHEDRAL>
0

>  <SCORE.SYSTEM.norm>
0

>  <SCORE.heavy>
17

>  <SCORE.norm>
-0.82814

$$$$
ligand
  RxDock  05162517583D
librxdock.so/0.1.0
 18 19  0  0  0  0  0  0  0  0999 V2000
  -52.0675   51.5893  -19.1415 C   0  0  0  0  0  0
  -52.7825   51.7905  -17.9583 C   0  0  0  0  0  0
  -54.0133   52.4633  -17.9651 C   0  0  0  0  0  0
  -54.5805   52.9588  -19.1492 C   0  0  0  0  0  0
  -53.8396   52.7254  -20.3239 C   0  0  0  0  0  0
  -52.6098   52.0533  -20.3394 C   0  0  0  0  0  0
  -50.3324   50.5525  -17.9866 O   0  5  0  0  0  0
  -50.7794   50.8851  -19.1257 C   0  0  0  0  0  0
  -50.2313   50.6826  -20.2505 O   0  0  0  0  0  0
  -54.6864   52.6190  -16.6914 C   0  0  0  0  0  0
  -54.1977   52.1774  -15.5237 C   0  0  0  0  0  0
  -54.3921   53.2179  -21.6124 C   0  0  0  0  0  0
  -54.0254   54.6197  -21.8666 C   0  0  0  0  0  0
  -53.0487   55.2897  -21.3005 N   0  0  0  0  0  0
  -53.0936   56.5475  -21.8470 N   0  0  0  0  0  0
  -54.0750   56.6488  -22.7331 N   0  0  0  0  0  0
  -54.6820   55.4422  -22.7463 N   0  0  0  0  0  0
  -55.4984   55.1840  -23.3190 H   0  0  0  0  0  0
  1  2  2  0  0  0
  2  3  1  0  0  0
  3  4  2  0  0  0
  3 10  1  0  0  0
  4  5  1  0  0  0
  5  6  2  0  0  0
  5 12  1  0  0  0
  1  6  1  0  0  0
  7  8  1  0  0  0
  1  8  1  0  0  0
  8  9  2  0  0  0
 10 11  2  0  0  0
 12 13  1  0  0  0
 13 14  2  0  0  0
 14 15  1  0  0  0
 15 16  2  0  0  0
 16 17  1  0  0  0
 13 17  1  0  0  0
 17 18  1  0  0  0
M  END
>  <CHROM.1>
0.86082572,85.85977491,-4.04348169,18.87032773,-53.10380017,53.08007812,-19.82788806
-1.19829816,0.62197482,-1.00752181

>  <Name>
ligand

>  <RI>
80

>  <Rbt.Current_Directory>
/home/hitesit/Python_Packages/Docking_Pipelines/HandsFreeDocking/Prototypes

>  <Rbt.Executable>
rbdock/0.1.0

>  <Rbt.Library>
librxdock.so/0.1.0

>  <Rbt.Parameter_File>
/home/hitesit/Software/rxdock/rxdock_installation/data/scripts/dock.prm

>  <Rbt.Receptor>
probe.prmtop

>  <SCORE>
-19.9018

>  <SCORE.INTER>
-16.5601

>  <SCORE.INTER.CONST>
1

>  <SCORE.INTER.POLAR>
-2.32448

>  <SCORE.INTER.REPUL>
0

>  <SCORE.INTER.ROT>
4

>  <SCORE.INTER.VDW>
-18.0569

>  <SCORE.INTER.norm>
-0.974126

>  <SCORE.INTRA>
-3.3417

>  <SCORE.INTRA.DIHEDRAL>
-8.56663

>  <SCORE.INTRA.DIHEDRAL.0>
10.682

>  <SCORE.INTRA.POLAR>
0

>  <SCORE.INTRA.POLAR.0>
0

>  <SCORE.INTRA.REPUL>
0

>  <SCORE.INTRA.REPUL.0>
0

>  <SCORE.INTRA.VDW>
0.941613

>  <SCORE.INTRA.VDW.0>
-0.0324487

>  <SCORE.INTRA.norm>
-0.196571

>  <SCORE.RESTR>
0

>  <SCORE.RESTR.CAVITY>
0

>  <SCORE.RESTR.norm>
0

>  <SCORE.SYSTEM>
0

>  <SCORE.SYSTEM.CONST>
0

>  <SCORE.SYSTEM.DIHEDRAL>
0

>  <SCORE.SYSTEM.norm>
0

>  <SCORE.heavy>
17

>  <SCORE.norm>
-1.1707

$$$$
ligand
  RxDock  05162517583D
librxdock.so/0.1.0
 18 19  0  0  0  0  0  0  0  0999 V2000
  -51.6292   51.4165  -18.8169 C   0  0  0  0  0  0
  -52.1007   51.5952  -17.5140 C   0  0  0  0  0  0
  -53.3837   52.1097  -17.2757 C   0  0  0  0  0  0
  -54.2470   52.4633  -18.3242 C   0  0  0  0  0  0
  -53.7443   52.2564  -19.6233 C   0  0  0  0  0  0
  -52.4671   51.7412  -19.8833 C   0  0  0  0  0  0
  -49.5188   50.8024  -18.0502 O   0  5  0  0  0  0
  -50.2848   50.8785  -19.0578 C   0  0  0  0  0  0
  -50.0129   50.5478  -20.2509 O   0  0  0  0  0  0
  -53.7897   52.2536  -15.8922 C   0  0  0  0  0  0
  -55.0548   52.4551  -15.4969 C   0  0  0  0  0  0
  -54.6147   52.6029  -20.7767 C   0  0  0  0  0  0
  -54.2876   53.9247  -21.3335 C   0  0  0  0  0  0
  -53.1512   54.5696  -21.2063 N   0  0  0  0  0  0
  -53.3141   55.7497  -21.8871 N   0  0  0  0  0  0
  -54.5238   55.8283  -22.4248 N   0  0  0  0  0  0
  -55.1559   54.6880  -22.0717 N   0  0  0  0  0  0
  -56.1243   54.4350  -22.3151 H   0  0  0  0  0  0
  1  2  2  0  0  0
  2  3  1  0  0  0
  3  4  2  0  0  0
  3 10  1  0  0  0
  4  5  1  0  0  0
  5  6  2  0  0  0
  5 12  1  0  0  0
  1  6  1  0  0  0
  7  8  1  0  0  0
  1  8  1  0  0  0
  8  9  2  0  0  0
 10 11  2  0  0  0
 12 13  1  0  0  0
 13 14  2  0  0  0
 14 15  1  0  0  0
 15 16  2  0  0  0
 16 17  1  0  0  0
 13 17  1  0  0  0
 17 18  1  0  0  0
M  END
>  <CHROM.1>
-165.30886248,98.45029306,-11.30337431,21.90266960,-52.98688150,52.70856419
-19.44706759,-1.02192661,0.52078504,-1.13263685

>  <Name>
ligand

>  <RI>
80

>  <Rbt.Current_Directory>
/home/hitesit/Python_Packages/Docking_Pipelines/HandsFreeDocking/Prototypes

>  <Rbt.Executable>
rbdock/0.1.0

>  <Rbt.Library>
librxdock.so/0.1.0

>  <Rbt.Parameter_File>
/home/hitesit/Software/rxdock/rxdock_installation/data/scripts/dock.prm

>  <Rbt.Receptor>
probe.prmtop

>  <SCORE>
-20.5146

>  <SCORE.INTER>
-17.1209

>  <SCORE.INTER.CONST>
1

>  <SCORE.INTER.POLAR>
-2.99069

>  <SCORE.INTER.REPUL>
0.0356651

>  <SCORE.INTER.ROT>
4

>  <SCORE.INTER.VDW>
-16.5309

>  <SCORE.INTER.norm>
-1.00711

>  <SCORE.INTRA>
-3.39371

>  <SCORE.INTRA.DIHEDRAL>
-7.37614

>  <SCORE.INTRA.DIHEDRAL.0>
10.682

>  <SCORE.INTRA.POLAR>
0

>  <SCORE.INTRA.POLAR.0>
0

>  <SCORE.INTRA.REPUL>
0

>  <SCORE.INTRA.REPUL.0>
0

>  <SCORE.INTRA.VDW>
0.294359

>  <SCORE.INTRA.VDW.0>
-0.0324487

>  <SCORE.INTRA.norm>
-0.19963

>  <SCORE.RESTR>
0

>  <SCORE.RESTR.CAVITY>
0

>  <SCORE.RESTR.norm>
0

>  <SCORE.SYSTEM>
0

>  <SCORE.SYSTEM.CONST>
0

>  <SCORE.SYSTEM.DIHEDRAL>
0

>  <SCORE.SYSTEM.norm>
0

>  <SCORE.heavy>
17

>  <SCORE.norm>
-1.20674

$$$$
ligand
  RxDock  05162517583D
librxdock.so/0.1.0
 18 19  0  0  0  0  0  0  0  0999 V2000
  -54.3224   52.8047  -18.3051 C   0  0  0  0  0  0
  -53.1487   52.0503  -18.3759 C   0  0  0  0  0  0
  -52.4451   51.9228  -19.5827 C   0  0  0  0  0  0
  -52.8809   52.5430  -20.7637 C   0  0  0  0  0  0
  -54.0589   53.3067  -20.6520 C   0  0  0  0  0  0
  -54.7752   53.4492  -19.4557 C   0  0  0  0  0  0
  -54.5546   52.3357  -16.0368 O   0  5  0  0  0  0
  -55.0534   52.9322  -17.0384 C   0  0  0  0  0  0
  -56.1181   53.6195  -17.0662 O   0  0  0  0  0  0
  -51.2346   51.1267  -19.5591 C   0  0  0  0  0  0
  -50.7431   50.5381  -18.4593 C   0  0  0  0  0  0
  -54.5669   53.9962  -21.8663 C   0  0  0  0  0  0
  -53.9624   55.3266  -22.0352 C   0  0  0  0  0  0
  -52.9583   55.8242  -21.3513 N   0  0  0  0  0  0
  -52.7498   57.0825  -21.8572 N   0  0  0  0  0  0
  -53.6051   57.3527  -22.8340 N   0  0  0  0  0  0
  -54.3874   56.2575  -22.9487 N   0  0  0  0  0  0
  -55.1692   56.1413  -23.6092 H   0  0  0  0  0  0
  1  2  2  0  0  0
  2  3  1  0  0  0
  3  4  2  0  0  0
  3 10  1  0  0  0
  4  5  1  0  0  0
  5  6  2  0  0  0
  5 12  1  0  0  0
  1  6  1  0  0  0
  7  8  1  0  0  0
  1  8  1  0  0  0
  8  9  2  0  0  0
 10 11  2  0  0  0
 12 13  1  0  0  0
 13 14  2  0  0  0
 14 15  1  0  0  0
 15 16  2  0  0  0
 16 17  1  0  0  0
 13 17  1  0  0  0
 17 18  1  0  0  0
M  END
>  <CHROM.1>
-1.43774900,-87.28179426,0.53647558,9.43260966,-53.65336558,53.71505528,-19.87392275
1.53951300,-0.63279271,2.29572228

>  <Name>
ligand

>  <RI>
80

>  <Rbt.Current_Directory>
/home/hitesit/Python_Packages/Docking_Pipelines/HandsFreeDocking/Prototypes

>  <Rbt.Executable>
rbdock/0.1.0

>  <Rbt.Library>
librxdock.so/0.1.0

>  <Rbt.Parameter_File>
/home/hitesit/Software/rxdock/rxdock_installation/data/scripts/dock.prm

>  <Rbt.Receptor>
probe.prmtop

>  <SCORE>
-17.5603

>  <SCORE.INTER>
-14.2277

>  <SCORE.INTER.CONST>
1

>  <SCORE.INTER.POLAR>
-0.976879

>  <SCORE.INTER.REPUL>
0

>  <SCORE.INTER.ROT>
4

>  <SCORE.INTER.VDW>
-20.3063

>  <SCORE.INTER.norm>
-0.836921

>  <SCORE.INTRA>
-3.33262

>  <SCORE.INTRA.DIHEDRAL>
-8.60156

>  <SCORE.INTRA.DIHEDRAL.0>
10.682

>  <SCORE.INTRA.POLAR>
0

>  <SCORE.INTRA.POLAR.0>
0

>  <SCORE.INTRA.REPUL>
0

>  <SCORE.INTRA.REPUL.0>
0

>  <SCORE.INTRA.VDW>
0.968161

>  <SCORE.INTRA.VDW.0>
-0.0324487

>  <SCORE.INTRA.norm>
-0.196037

>  <SCORE.RESTR>
0

>  <SCORE.RESTR.CAVITY>
0

>  <SCORE.RESTR.norm>
0

>  <SCORE.SYSTEM>
0

>  <SCORE.SYSTEM.CONST>
0

>  <SCORE.SYSTEM.DIHEDRAL>
0

>  <SCORE.SYSTEM.norm>
0

>  <SCORE.heavy>
17

>  <SCORE.norm>
-1.03296

$$$$
ligand
  RxDock  05162517583D
librxdock.so/0.1.0
 18 19  0  0  0  0  0  0  0  0999 V2000
  -52.6812   52.0176  -16.6279 C   0  0  0  0  0  0
  -51.7636   52.3813  -15.6392 C   0  0  0  0  0  0
  -50.4089   52.0351  -15.7504 C   0  0  0  0  0  0
  -49.9152   51.3168  -16.8503 C   0  0  0  0  0  0
  -50.8652   50.9798  -17.8338 C   0  0  0  0  0  0
  -52.2223   51.3181  -17.7435 C   0  0  0  0  0  0
  -54.4411   52.9500  -15.4226 O   0  5  0  0  0  0
  -54.0977   52.3827  -16.5035 C   0  0  0  0  0  0
  -54.8458   52.0901  -17.4840 O   0  0  0  0  0  0
  -49.5297   52.4610  -14.6801 C   0  0  0  0  0  0
  -49.9534   53.0089  -13.5322 C   0  0  0  0  0  0
  -50.4026   50.2265  -19.0283 C   0  0  0  0  0  0
  -50.4504   51.0482  -20.2475 C   0  0  0  0  0  0
  -49.4770   51.2294  -21.1096 N   0  0  0  0  0  0
  -49.9825   52.0661  -22.0724 N   0  0  0  0  0  0
  -51.2414   52.3907  -21.8105 N   0  0  0  0  0  0
  -51.5469   51.7661  -20.6525 N   0  0  0  0  0  0
  -52.4490   51.8197  -20.1581 H   0  0  0  0  0  0
  1  2  2  0  0  0
  2  3  1  0  0  0
  3  4  2  0  0  0
  3 10  1  0  0  0
  4  5  1  0  0  0
  5  6  2  0  0  0
  5 12  1  0  0  0
  1  6  1  0  0  0
  7  8  1  0  0  0
  1  8  1  0  0  0
  8  9  2  0  0  0
 10 11  2  0  0  0
 12 13  1  0  0  0
 13 14  2  0  0  0
 14 15  1  0  0  0
 15 16  2  0  0  0
 16 17  1  0  0  0
 13 17  1  0  0  0
 17 18  1  0  0  0
M  END
>  <CHROM.1>
8.60498981,-110.82703327,-4.81274168,128.76435803,-51.45858276,51.88134194
-17.85526822,1.82811332,-0.12243172,1.44642033

>  <Name>
ligand

>  <RI>
80

>  <Rbt.Current_Directory>
/home/hitesit/Python_Packages/Docking_Pipelines/HandsFreeDocking/Prototypes

>  <Rbt.Executable>
rbdock/0.1.0

>  <Rbt.Library>
librxdock.so/0.1.0

>  <Rbt.Parameter_File>
/home/hitesit/Software/rxdock/rxdock_installation/data/scripts/dock.prm

>  <Rbt.Receptor>
probe.prmtop

>  <SCORE>
-12.2251

>  <SCORE.INTER>
-9.18547

>  <SCORE.INTER.CONST>
1

>  <SCORE.INTER.POLAR>
-0.959166

>  <SCORE.INTER.REPUL>
0.00141432

>  <SCORE.INTER.ROT>
4

>  <SCORE.INTER.VDW>
-15.3314

>  <SCORE.INTER.norm>
-0.540322

>  <SCORE.INTRA>
-3.03967

>  <SCORE.INTRA.DIHEDRAL>
-8.2792

>  <SCORE.INTRA.DIHEDRAL.0>
10.682

>  <SCORE.INTRA.POLAR>
0

>  <SCORE.INTRA.POLAR.0>
0

>  <SCORE.INTRA.REPUL>
0

>  <SCORE.INTRA.REPUL.0>
0

>  <SCORE.INTRA.VDW>
1.09993

>  <SCORE.INTRA.VDW.0>
-0.0324487

>  <SCORE.INTRA.norm>
-0.178804

>  <SCORE.RESTR>
0

>  <SCORE.RESTR.CAVITY>
0

>  <SCORE.RESTR.norm>
0

>  <SCORE.SYSTEM>
0

>  <SCORE.SYSTEM.CONST>
0

>  <SCORE.SYSTEM.DIHEDRAL>
0

>  <SCORE.SYSTEM.norm>
0

>  <SCORE.heavy>
17

>  <SCORE.norm>
-0.719126

$$$$
ligand
  RxDock  05162517583D
librxdock.so/0.1.0
 18 19  0  0  0  0  0  0  0  0999 V2000
  -54.2591   55.1215  -22.2599 C   0  0  0  0  0  0
  -55.2132   54.6545  -23.1673 C   0  0  0  0  0  0
  -55.7500   53.3640  -23.0487 C   0  0  0  0  0  0
  -55.3602   52.4905  -22.0218 C   0  0  0  0  0  0
  -54.4080   52.9996  -21.1177 C   0  0  0  0  0  0
  -53.8613   54.2864  -21.2165 C   0  0  0  0  0  0
  -54.3004   57.2551  -23.1901 O   0  5  0  0  0  0
  -53.7014   56.4731  -22.3916 C   0  0  0  0  0  0
  -52.6696   56.7293  -21.7013 O   0  0  0  0  0  0
  -56.7390   52.9686  -24.0313 C   0  0  0  0  0  0
  -57.3728   51.7873  -24.0268 C   0  0  0  0  0  0
  -53.9612   52.1257  -20.0020 C   0  0  0  0  0  0
  -54.3456   52.6704  -18.6907 C   0  0  0  0  0  0
  -55.5554   53.0018  -18.3033 N   0  0  0  0  0  0
  -55.4228   53.4588  -17.0164 N   0  0  0  0  0  0
  -54.1588   53.4069  -16.6186 N   0  0  0  0  0  0
  -53.4635   52.9237  -17.6711 N   0  0  0  0  0  0
  -52.4453   52.7716  -17.7027 H   0  0  0  0  0  0
  1  2  2  0  0  0
  2  3  1  0  0  0
  3  4  2  0  0  0
  3 10  1  0  0  0
  4  5  1  0  0  0
  5  6  2  0  0  0
  5 12  1  0  0  0
  1  6  1  0  0  0
  7  8  1  0  0  0
  1  8  1  0  0  0
  8  9  2  0  0  0
 10 11  2  0  0  0
 12 13  1  0  0  0
 13 14  2  0  0  0
 14 15  1  0  0  0
 15 16  2  0  0  0
 16 17  1  0  0  0
 13 17  1  0  0  0
 17 18  1  0  0  0
M  END
>  <CHROM.1>
-177.81385389,-115.58791187,12.78718832,55.00367339,-54.70714804,53.90820324
-20.92916104,-1.80557900,0.95635219,2.04390028

>  <Name>
ligand

>  <RI>
80

>  <Rbt.Current_Directory>
/home/hitesit/Python_Packages/Docking_Pipelines/HandsFreeDocking/Prototypes

>  <Rbt.Executable>
rbdock/0.1.0

>  <Rbt.Library>
librxdock.so/0.1.0

>  <Rbt.Parameter_File>
/home/hitesit/Software/rxdock/rxdock_installation/data/scripts/dock.prm

>  <Rbt.Receptor>
probe.prmtop

>  <SCORE>
-15.8055

>  <SCORE.INTER>
-12.1706

>  <SCORE.INTER.CONST>
1

>  <SCORE.INTER.POLAR>
-1.63851

>  <SCORE.INTER.REPUL>
0.131923

>  <SCORE.INTER.ROT>
4

>  <SCORE.INTER.VDW>
-16.6593

>  <SCORE.INTER.norm>
-0.71592

>  <SCORE.INTRA>
-3.63487

>  <SCORE.INTRA.DIHEDRAL>
-7.91464

>  <SCORE.INTRA.DIHEDRAL.0>
10.682

>  <SCORE.INTRA.POLAR>
0

>  <SCORE.INTRA.POLAR.0>
0

>  <SCORE.INTRA.REPUL>
0

>  <SCORE.INTRA.REPUL.0>
0

>  <SCORE.INTRA.VDW>
0.322453

>  <SCORE.INTRA.VDW.0>
-0.0324487

>  <SCORE.INTRA.norm>
-0.213816

>  <SCORE.RESTR>
0

>  <SCORE.RESTR.CAVITY>
0

>  <SCORE.RESTR.norm>
0

>  <SCORE.SYSTEM>
0

>  <SCORE.SYSTEM.CONST>
0

>  <SCORE.SYSTEM.DIHEDRAL>
0

>  <SCORE.SYSTEM.norm>
0

>  <SCORE.heavy>
17

>  <SCORE.norm>
-0.929736

$$$$
ligand
  RxDock  05162517583D
librxdock.so/0.1.0
 18 19  0  0  0  0  0  0  0  0999 V2000
  -54.5653   52.4870  -17.0712 C   0  0  0  0  0  0
  -55.9563   52.3917  -16.9830 C   0  0  0  0  0  0
  -56.7494   52.3286  -18.1383 C   0  0  0  0  0  0
  -56.1888   52.3553  -19.4245 C   0  0  0  0  0  0
  -54.7838   52.4374  -19.4752 C   0  0  0  0  0  0
  -53.9730   52.4986  -18.3336 C   0  0  0  0  0  0
  -54.3595   52.4738  -14.7524 O   0  5  0  0  0  0
  -53.7424   52.5537  -15.8573 C   0  0  0  0  0  0
  -52.4940   52.6927  -16.0268 O   0  0  0  0  0  0
  -58.1822   52.2239  -17.9492 C   0  0  0  0  0  0
  -58.7857   52.2378  -16.7522 C   0  0  0  0  0  0
  -54.1291   52.4601  -20.8089 C   0  0  0  0  0  0
  -53.9970   53.8286  -21.3321 C   0  0  0  0  0  0
  -53.0111   54.6643  -21.1017 N   0  0  0  0  0  0
  -53.3225   55.8079  -21.7930 N   0  0  0  0  0  0
  -54.4739   55.6780  -22.4379 N   0  0  0  0  0  0
  -54.9194   54.4370  -22.1449 N   0  0  0  0  0  0
  -55.8010   54.0190  -22.4753 H   0  0  0  0  0  0
  1  2  2  0  0  0
  2  3  1  0  0  0
  3  4  2  0  0  0
  3 10  1  0  0  0
  4  5  1  0  0  0
  5  6  2  0  0  0
  5 12  1  0  0  0
  1  6  1  0  0  0
  7  8  1  0  0  0
  1  8  1  0  0  0
  8  9  2  0  0  0
 10 11  2  0  0  0
 12 13  1  0  0  0
 13 14  2  0  0  0
 14 15  1  0  0  0
 15 16  2  0  0  0
 16 17  1  0  0  0
 13 17  1  0  0  0
 17 18  1  0  0  0
M  END
>  <CHROM.1>
2.75860066,88.61881766,2.32810406,86.94462141,-54.88449307,53.17612560,-18.83397896
-1.82608061,-0.22122451,-1.21477821

>  <Name>
ligand

>  <RI>
80

>  <Rbt.Current_Directory>
/home/hitesit/Python_Packages/Docking_Pipelines/HandsFreeDocking/Prototypes

>  <Rbt.Executable>
rbdock/0.1.0

>  <Rbt.Library>
librxdock.so/0.1.0

>  <Rbt.Parameter_File>
/home/hitesit/Software/rxdock/rxdock_installation/data/scripts/dock.prm

>  <Rbt.Receptor>
probe.prmtop

>  <SCORE>
-14.0698

>  <SCORE.INTER>
-10.5585

>  <SCORE.INTER.CONST>
1

>  <SCORE.INTER.POLAR>
-1.56793

>  <SCORE.INTER.REPUL>
0.0189687

>  <SCORE.INTER.ROT>
4

>  <SCORE.INTER.VDW>
-14.7224

>  <SCORE.INTER.norm>
-0.62109

>  <SCORE.INTRA>
-3.51126

>  <SCORE.INTRA.DIHEDRAL>
-8.57924

>  <SCORE.INTRA.DIHEDRAL.0>
10.682

>  <SCORE.INTRA.POLAR>
0

>  <SCORE.INTRA.POLAR.0>
0

>  <SCORE.INTRA.REPUL>
0

>  <SCORE.INTRA.REPUL.0>
0

>  <SCORE.INTRA.VDW>
0.778355

>  <SCORE.INTRA.VDW.0>
-0.0324487

>  <SCORE.INTRA.norm>
-0.206545

>  <SCORE.RESTR>
0

>  <SCORE.RESTR.CAVITY>
0

>  <SCORE.RESTR.norm>
0

>  <SCORE.SYSTEM>
0

>  <SCORE.SYSTEM.CONST>
0

>  <SCORE.SYSTEM.DIHEDRAL>
0

>  <SCORE.SYSTEM.norm>
0

>  <SCORE.heavy>
17

>  <SCORE.norm>
-0.827635

$$$$
ligand
  RxDock  05162517583D
librxdock.so/0.1.0
 18 19  0  0  0  0  0  0  0  0999 V2000
  -54.3225   55.1366  -22.1201 C   0  0  0  0  0  0
  -55.4884   54.6689  -22.7314 C   0  0  0  0  0  0
  -56.0122   53.4068  -22.4146 C   0  0  0  0  0  0
  -55.3978   52.5636  -21.4759 C   0  0  0  0  0  0
  -54.2334   53.0732  -20.8695 C   0  0  0  0  0  0
  -53.6951   54.3320  -21.1696 C   0  0  0  0  0  0
  -54.4623   57.1581  -23.2659 O   0  5  0  0  0  0
  -53.7801   56.4582  -22.4581 C   0  0  0  0  0  0
  -52.6776   56.7726  -21.9174 O   0  0  0  0  0  0
  -57.2290   53.0088  -23.0934 C   0  0  0  0  0  0
  -57.8298   51.8222  -22.9255 C   0  0  0  0  0  0
  -53.5413   52.2312  -19.8595 C   0  0  0  0  0  0
  -53.8582   52.6506  -18.4855 C   0  0  0  0  0  0
  -53.1592   52.3900  -17.4052 N   0  0  0  0  0  0
  -53.8398   52.9791  -16.3696 N   0  0  0  0  0  0
  -54.9328   53.5921  -16.8034 N   0  0  0  0  0  0
  -54.9656   53.3813  -18.1372 N   0  0  0  0  0  0
  -55.6971   53.7127  -18.7824 H   0  0  0  0  0  0
  1  2  2  0  0  0
  2  3  1  0  0  0
  3  4  2  0  0  0
  3 10  1  0  0  0
  4  5  1  0  0  0
  5  6  2  0  0  0
  5 12  1  0  0  0
  1  6  1  0  0  0
  7  8  1  0  0  0
  1  8  1  0  0  0
  8  9  2  0  0  0
 10 11  2  0  0  0
 12 13  1  0  0  0
 13 14  2  0  0  0
 14 15  1  0  0  0
 15 16  2  0  0  0
 16 17  1  0  0  0
 13 17  1  0  0  0
 17 18  1  0  0  0
M  END
>  <CHROM.1>
178.11226845,-100.63799826,3.63437215,-159.48811428,-54.65416562,53.90468514
-20.65100752,-1.83531185,0.80933532,2.16228460

>  <Name>
ligand

>  <RI>
80

>  <Rbt.Current_Directory>
/home/hitesit/Python_Packages/Docking_Pipelines/HandsFreeDocking/Prototypes

>  <Rbt.Executable>
rbdock/0.1.0

>  <Rbt.Library>
librxdock.so/0.1.0

>  <Rbt.Parameter_File>
/home/hitesit/Software/rxdock/rxdock_installation/data/scripts/dock.prm

>  <Rbt.Receptor>
probe.prmtop

>  <SCORE>
-17.8979

>  <SCORE.INTER>
-13.7949

>  <SCORE.INTER.CONST>
1

>  <SCORE.INTER.POLAR>
-2.33585

>  <SCORE.INTER.REPUL>
0.286454

>  <SCORE.INTER.ROT>
4

>  <SCORE.INTER.VDW>
-16.6853

>  <SCORE.INTER.norm>
-0.811466

>  <SCORE.INTRA>
-4.10296

>  <SCORE.INTRA.DIHEDRAL>
-8.54842

>  <SCORE.INTRA.DIHEDRAL.0>
10.682

>  <SCORE.INTRA.POLAR>
0

>  <SCORE.INTRA.POLAR.0>
0

>  <SCORE.INTRA.REPUL>
0

>  <SCORE.INTRA.REPUL.0>
0

>  <SCORE.INTRA.VDW>
0.17125

>  <SCORE.INTRA.VDW.0>
-0.0324487

>  <SCORE.INTRA.norm>
-0.241351

>  <SCORE.RESTR>
0

>  <SCORE.RESTR.CAVITY>
0

>  <SCORE.RESTR.norm>
0

>  <SCORE.SYSTEM>
0

>  <SCORE.SYSTEM.CONST>
0

>  <SCORE.SYSTEM.DIHEDRAL>
0

>  <SCORE.SYSTEM.norm>
0

>  <SCORE.heavy>
17

>  <SCORE.norm>
-1.05282

$$$$
ligand
  RxDock  05162517583D
librxdock.so/0.1.0
 18 19  0  0  0  0  0  0  0  0999 V2000
  -54.6181   52.6521  -17.7509 C   0  0  0  0  0  0
  -53.3859   52.0294  -17.5368 C   0  0  0  0  0  0
  -52.5252   51.7468  -18.6077 C   0  0  0  0  0  0
  -52.8562   52.0752  -19.9313 C   0  0  0  0  0  0
  -54.0986   52.7144  -20.1079 C   0  0  0  0  0  0
  -54.9719   53.0083  -19.0518 C   0  0  0  0  0  0
  -55.0751   52.6641  -15.4683 O   0  5  0  0  0  0
  -55.5137   52.9435  -16.6248 C   0  0  0  0  0  0
  -56.6438   53.4394  -16.9141 O   0  0  0  0  0  0
  -51.2653   51.1056  -18.2892 C   0  0  0  0  0  0
  -50.3735   50.7034  -19.2059 C   0  0  0  0  0  0
  -54.5025   53.0963  -21.4860 C   0  0  0  0  0  0
  -54.0971   54.4714  -21.8155 C   0  0  0  0  0  0
  -53.0719   55.1262  -21.3220 N   0  0  0  0  0  0
  -53.0959   56.3614  -21.9189 N   0  0  0  0  0  0
  -54.1124   56.4639  -22.7645 N   0  0  0  0  0  0
  -54.7629   55.2819  -22.6996 N   0  0  0  0  0  0
  -55.6133   55.0319  -23.2243 H   0  0  0  0  0  0
  1  2  2  0  0  0
  2  3  1  0  0  0
  3  4  2  0  0  0
  3 10  1  0  0  0
  4  5  1  0  0  0
  5  6  2  0  0  0
  5 12  1  0  0  0
  1  6  1  0  0  0
  7  8  1  0  0  0
  1  8  1  0  0  0
  8  9  2  0  0  0
 10 11  2  0  0  0
 12 13  1  0  0  0
 13 14  2  0  0  0
 14 15  1  0  0  0
 15 16  2  0  0  0
 16 17  1  0  0  0
 13 17  1  0  0  0
 17 18  1  0  0  0
M  END
>  <CHROM.1>
176.01362519,-92.30979331,3.53174068,28.24259992,-53.86174068,53.32846502
-19.49502781,1.59329281,-0.55429019,2.15182476

>  <Name>
ligand

>  <RI>
80

>  <Rbt.Current_Directory>
/home/hitesit/Python_Packages/Docking_Pipelines/HandsFreeDocking/Prototypes

>  <Rbt.Executable>
rbdock/0.1.0

>  <Rbt.Library>
librxdock.so/0.1.0

>  <Rbt.Parameter_File>
/home/hitesit/Software/rxdock/rxdock_installation/data/scripts/dock.prm

>  <Rbt.Receptor>
probe.prmtop

>  <SCORE>
-17.6817

>  <SCORE.INTER>
-13.801

>  <SCORE.INTER.CONST>
1

>  <SCORE.INTER.POLAR>
-1.25615

>  <SCORE.INTER.REPUL>
0

>  <SCORE.INTER.ROT>
4

>  <SCORE.INTER.VDW>
-18.9301

>  <SCORE.INTER.norm>
-0.811822

>  <SCORE.INTRA>
-3.88073

>  <SCORE.INTRA.DIHEDRAL>
-8.47338

>  <SCORE.INTRA.DIHEDRAL.0>
10.682

>  <SCORE.INTRA.POLAR>
0

>  <SCORE.INTRA.POLAR.0>
0

>  <SCORE.INTRA.REPUL>
0

>  <SCORE.INTRA.REPUL.0>
0

>  <SCORE.INTRA.VDW>
0.35596

>  <SCORE.INTRA.VDW.0>
-0.0324487

>  <SCORE.INTRA.norm>
-0.228278

>  <SCORE.RESTR>
0

>  <SCORE.RESTR.CAVITY>
0

>  <SCORE.RESTR.norm>
0

>  <SCORE.SYSTEM>
0

>  <SCORE.SYSTEM.CONST>
0

>  <SCORE.SYSTEM.DIHEDRAL>
0

>  <SCORE.SYSTEM.norm>
0

>  <SCORE.heavy>
17

>  <SCORE.norm>
-1.0401

$$$$
ligand
  RxDock  05162517583D
librxdock.so/0.1.0
 18 19  0  0  0  0  0  0  0  0999 V2000
  -55.7469   52.8524  -22.1934 C   0  0  0  0  0  0
  -55.4685   54.1418  -22.6534 C   0  0  0  0  0  0
  -54.4155   54.8906  -22.1073 C   0  0  0  0  0  0
  -53.5982   54.3841  -21.0851 C   0  0  0  0  0  0
  -53.8985   53.0767  -20.6564 C   0  0  0  0  0  0
  -54.9438   52.3108  -21.1903 C   0  0  0  0  0  0
  -57.7559   52.7367  -23.3637 O   0  5  0  0  0  0
  -56.8515   52.0758  -22.7695 C   0  0  0  0  0  0
  -56.8020   50.8190  -22.6123 O   0  0  0  0  0  0
  -54.1969   56.2154  -22.6520 C   0  0  0  0  0  0
  -53.1976   57.0268  -22.2776 C   0  0  0  0  0  0
  -53.0627   52.4802  -19.5823 C   0  0  0  0  0  0
  -53.6366   52.7121  -18.2478 C   0  0  0  0  0  0
  -54.6491   53.4947  -17.9549 N   0  0  0  0  0  0
  -54.8196   53.3916  -16.5973 N   0  0  0  0  0  0
  -53.9331   52.5606  -16.0661 N   0  0  0  0  0  0
  -53.1692   52.1338  -17.0951 N   0  0  0  0  0  0
  -52.3721   51.4850  -17.0260 H   0  0  0  0  0  0
  1  2  2  0  0  0
  2  3  1  0  0  0
  3  4  2  0  0  0
  3 10  1  0  0  0
  4  5  1  0  0  0
  5  6  2  0  0  0
  5 12  1  0  0  0
  1  6  1  0  0  0
  7  8  1  0  0  0
  1  8  1  0  0  0
  8  9  2  0  0  0
 10 11  2  0  0  0
 12 13  1  0  0  0
 13 14  2  0  0  0
 14 15  1  0  0  0
 15 16  2  0  0  0
 16 17  1  0  0  0
 13 17  1  0  0  0
 17 18  1  0  0  0
M  END
>  <CHROM.1>
-176.93645174,92.57506019,-21.01172145,-9.18512223,-54.74276908,53.33048003
-20.51070114,2.14621932,-0.87821410,-0.98034628

>  <Name>
ligand

>  <RI>
80

>  <Rbt.Current_Directory>
/home/hitesit/Python_Packages/Docking_Pipelines/HandsFreeDocking/Prototypes

>  <Rbt.Executable>
rbdock/0.1.0

>  <Rbt.Library>
librxdock.so/0.1.0

>  <Rbt.Parameter_File>
/home/hitesit/Software/rxdock/rxdock_installation/data/scripts/dock.prm

>  <Rbt.Receptor>
probe.prmtop

>  <SCORE>
-15.4006

>  <SCORE.INTER>
-12.1062

>  <SCORE.INTER.CONST>
1

>  <SCORE.INTER.POLAR>
-1.53786

>  <SCORE.INTER.REPUL>
0

>  <SCORE.INTER.ROT>
4

>  <SCORE.INTER.VDW>
-16.2775

>  <SCORE.INTER.norm>
-0.712131

>  <SCORE.INTRA>
-3.2944

>  <SCORE.INTRA.DIHEDRAL>
-7.05139

>  <SCORE.INTRA.DIHEDRAL.0>
10.682

>  <SCORE.INTRA.POLAR>
0

>  <SCORE.INTRA.POLAR.0>
0

>  <SCORE.INTRA.REPUL>
0

>  <SCORE.INTRA.REPUL.0>
0

>  <SCORE.INTRA.VDW>
0.231292

>  <SCORE.INTRA.VDW.0>
-0.0324487

>  <SCORE.INTRA.norm>
-0.193788

>  <SCORE.RESTR>
0

>  <SCORE.RESTR.CAVITY>
0

>  <SCORE.RESTR.norm>
0

>  <SCORE.SYSTEM>
0

>  <SCORE.SYSTEM.CONST>
0

>  <SCORE.SYSTEM.DIHEDRAL>
0

>  <SCORE.SYSTEM.norm>
0

>  <SCORE.heavy>
17

>  <SCORE.norm>
-0.905919

$$$$
ligand
  RxDock  05162517583D
librxdock.so/0.1.0
 18 19  0  0  0  0  0  0  0  0999 V2000
  -54.2612   55.1438  -22.1458 C   0  0  0  0  0  0
  -55.2606   54.7079  -23.0193 C   0  0  0  0  0  0
  -55.8379   53.4374  -22.8780 C   0  0  0  0  0  0
  -55.4450   52.5537  -21.8610 C   0  0  0  0  0  0
  -54.4461   53.0317  -20.9909 C   0  0  0  0  0  0
  -53.8584   54.2982  -21.1128 C   0  0  0  0  0  0
  -54.2239   57.2539  -23.1285 O   0  5  0  0  0  0
  -53.6613   56.4746  -22.3013 C   0  0  0  0  0  0
  -52.6333   56.7174  -21.6005 O   0  0  0  0  0  0
  -56.8721   53.0741  -23.8257 C   0  0  0  0  0  0
  -57.4562   51.8685  -23.8757 C   0  0  0  0  0  0
  -53.9934   52.1459  -19.8871 C   0  0  0  0  0  0
  -54.3720   52.6756  -18.5680 C   0  0  0  0  0  0
  -55.5786   53.0113  -18.1747 N   0  0  0  0  0  0
  -55.4410   53.4497  -16.8818 N   0  0  0  0  0  0
  -54.1770   53.3822  -16.4863 N   0  0  0  0  0  0
  -53.4868   52.9080  -17.5461 N   0  0  0  0  0  0
  -52.4698   52.7481  -17.5810 H   0  0  0  0  0  0
  1  2  2  0  0  0
  2  3  1  0  0  0
  3  4  2  0  0  0
  3 10  1  0  0  0
  4  5  1  0  0  0
  5  6  2  0  0  0
  5 12  1  0  0  0
  1  6  1  0  0  0
  7  8  1  0  0  0
  1  8  1  0  0  0
  8  9  2  0  0  0
 10 11  2  0  0  0
 12 13  1  0  0  0
 13 14  2  0  0  0
 14 15  1  0  0  0
 15 16  2  0  0  0
 16 17  1  0  0  0
 13 17  1  0  0  0
 17 18  1  0  0  0
M  END
>  <CHROM.1>
175.49436858,-112.84209742,9.69392624,54.44078951,-54.73243170,53.93128282
-20.80136781,-1.78228035,0.91837402,2.03952403

>  <Name>
ligand

>  <RI>
80

>  <Rbt.Current_Directory>
/home/hitesit/Python_Packages/Docking_Pipelines/HandsFreeDocking/Prototypes

>  <Rbt.Executable>
rbdock/0.1.0

>  <Rbt.Library>
librxdock.so/0.1.0

>  <Rbt.Parameter_File>
/home/hitesit/Software/rxdock/rxdock_installation/data/scripts/dock.prm

>  <Rbt.Receptor>
probe.prmtop

>  <SCORE>
-15.787

>  <SCORE.INTER>
-12.051

>  <SCORE.INTER.CONST>
1

>  <SCORE.INTER.POLAR>
-1.54417

>  <SCORE.INTER.REPUL>
0.144877

>  <SCORE.INTER.ROT>
4

>  <SCORE.INTER.VDW>
-16.9252

>  <SCORE.INTER.norm>
-0.708884

>  <SCORE.INTRA>
-3.73595

>  <SCORE.INTRA.DIHEDRAL>
-8.12083

>  <SCORE.INTRA.DIHEDRAL.0>
10.682

>  <SCORE.INTRA.POLAR>
0

>  <SCORE.INTRA.POLAR.0>
0

>  <SCORE.INTRA.REPUL>
0

>  <SCORE.INTRA.REPUL.0>
0

>  <SCORE.INTRA.VDW>
0.324465

>  <SCORE.INTRA.VDW.0>
-0.0324487

>  <SCORE.INTRA.norm>
-0.219762

>  <SCORE.RESTR>
0

>  <SCORE.RESTR.CAVITY>
0

>  <SCORE.RESTR.norm>
0

>  <SCORE.SYSTEM>
0

>  <SCORE.SYSTEM.CONST>
0

>  <SCORE.SYSTEM.DIHEDRAL>
0

>  <SCORE.SYSTEM.norm>
0

>  <SCORE.heavy>
17

>  <SCORE.norm>
-0.928646

$$$$
ligand
  RxDock  05162517583D
librxdock.so/0.1.0
 18 19  0  0  0  0  0  0  0  0999 V2000
  -51.7670   51.5378  -18.7556 C   0  0  0  0  0  0
  -52.2678   51.7150  -17.4636 C   0  0  0  0  0  0
  -53.5301   52.2890  -17.2520 C   0  0  0  0  0  0
  -54.3428   52.7058  -18.3175 C   0  0  0  0  0  0
  -53.8123   52.4987  -19.6055 C   0  0  0  0  0  0
  -52.5551   51.9247  -19.8389 C   0  0  0  0  0  0
  -50.1316   50.6727  -20.1685 O   0  5  0  0  0  0
  -50.4444   50.9372  -18.9685 C   0  0  0  0  0  0
  -49.7426   50.7323  -17.9330 O   0  0  0  0  0  0
  -53.9698   52.4266  -15.8781 C   0  0  0  0  0  0
  -53.3162   51.9159  -14.8248 C   0  0  0  0  0  0
  -54.6293   52.9108  -20.7763 C   0  0  0  0  0  0
  -54.2078   54.2163  -21.3073 C   0  0  0  0  0  0
  -53.0341   54.7838  -21.1529 N   0  0  0  0  0  0
  -53.1088   55.9818  -21.8176 N   0  0  0  0  0  0
  -54.3019   56.1470  -22.3724 N   0  0  0  0  0  0
  -55.0126   55.0455  -22.0467 N   0  0  0  0  0  0
  -55.9913   54.8599  -22.3087 H   0  0  0  0  0  0
  1  2  2  0  0  0
  2  3  1  0  0  0
  3  4  2  0  0  0
  3 10  1  0  0  0
  4  5  1  0  0  0
  5  6  2  0  0  0
  5 12  1  0  0  0
  1  6  1  0  0  0
  7  8  1  0  0  0
  1  8  1  0  0  0
  8  9  2  0  0  0
 10 11  2  0  0  0
 12 13  1  0  0  0
 13 14  2  0  0  0
 14 15  1  0  0  0
 15 16  2  0  0  0
 16 17  1  0  0  0
 13 17  1  0  0  0
 17 18  1  0  0  0
M  END
>  <CHROM.1>
-7.40325896,99.23937869,172.18461597,22.56336736,-52.91549600,52.85631421
-19.36170689,-1.09997178,0.58302975,-1.13656195

>  <Name>
ligand

>  <RI>
80

>  <Rbt.Current_Directory>
/home/hitesit/Python_Packages/Docking_Pipelines/HandsFreeDocking/Prototypes

>  <Rbt.Executable>
rbdock/0.1.0

>  <Rbt.Library>
librxdock.so/0.1.0

>  <Rbt.Parameter_File>
/home/hitesit/Software/rxdock/rxdock_installation/data/scripts/dock.prm

>  <Rbt.Receptor>
probe.prmtop

>  <SCORE>
-19.9891

>  <SCORE.INTER>
-16.8122

>  <SCORE.INTER.CONST>
1

>  <SCORE.INTER.POLAR>
-2.80815

>  <SCORE.INTER.REPUL>
0.00751144

>  <SCORE.INTER.ROT>
4

>  <SCORE.INTER.VDW>
-16.7021

>  <SCORE.INTER.norm>
-0.988955

>  <SCORE.INTRA>
-3.17682

>  <SCORE.INTRA.DIHEDRAL>
-8.18738

>  <SCORE.INTRA.DIHEDRAL.0>
10.682

>  <SCORE.INTRA.POLAR>
0

>  <SCORE.INTRA.POLAR.0>
0

>  <SCORE.INTRA.REPUL>
0

>  <SCORE.INTRA.REPUL.0>
0

>  <SCORE.INTRA.VDW>
0.916865

>  <SCORE.INTRA.VDW.0>
-0.0324487

>  <SCORE.INTRA.norm>
-0.186872

>  <SCORE.RESTR>
0

>  <SCORE.RESTR.CAVITY>
0

>  <SCORE.RESTR.norm>
0

>  <SCORE.SYSTEM>
0

>  <SCORE.SYSTEM.CONST>
0

>  <SCORE.SYSTEM.DIHEDRAL>
0

>  <SCORE.SYSTEM.norm>
0

>  <SCORE.heavy>
17

>  <SCORE.norm>
-1.17583

$$$$
ligand
  RxDock  05162517583D
librxdock.so/0.1.0
 18 19  0  0  0  0  0  0  0  0999 V2000
  -54.4170   54.3161  -21.5157 C   0  0  0  0  0  0
  -55.5222   53.5268  -21.8434 C   0  0  0  0  0  0
  -55.7710   52.3205  -21.1722 C   0  0  0  0  0  0
  -54.9318   51.8552  -20.1483 C   0  0  0  0  0  0
  -53.8364   52.6829  -19.8350 C   0  0  0  0  0  0
  -53.5713   53.8928  -20.4911 C   0  0  0  0  0  0
  -55.0963   56.0035  -22.9685 O   0  5  0  0  0  0
  -54.1629   55.5768  -22.2237 C   0  0  0  0  0  0
  -53.0323   56.1164  -22.0307 O   0  0  0  0  0  0
  -56.9448   51.5722  -21.5748 C   0  0  0  0  0  0
  -57.7578   51.9315  -22.5784 C   0  0  0  0  0  0
  -52.9152   52.2495  -18.7525 C   0  0  0  0  0  0
  -53.5447   52.3429  -17.4262 C   0  0  0  0  0  0
  -54.0545   53.4195  -16.8743 N   0  0  0  0  0  0
  -54.5204   53.0238  -15.6459 N   0  0  0  0  0  0
  -54.3050   51.7305  -15.4469 N   0  0  0  0  0  0
  -53.6762   51.2891  -16.5580 N   0  0  0  0  0  0
  -53.3512   50.3260  -16.7246 H   0  0  0  0  0  0
  1  2  2  0  0  0
  2  3  1  0  0  0
  3  4  2  0  0  0
  3 10  1  0  0  0
  4  5  1  0  0  0
  5  6  2  0  0  0
  5 12  1  0  0  0
  1  6  1  0  0  0
  7  8  1  0  0  0
  1  8  1  0  0  0
  8  9  2  0  0  0
 10 11  2  0  0  0
 12 13  1  0  0  0
 13 14  2  0  0  0
 14 15  1  0  0  0
 15 16  2  0  0  0
 16 17  1  0  0  0
 13 17  1  0  0  0
 17 18  1  0  0  0
M  END
>  <CHROM.1>
3.19646527,-70.62425259,11.16492163,-57.80365533,-54.57671969,53.20090906
-19.81467751,-1.83429613,0.79221042,2.13431782

>  <Name>
ligand

>  <RI>
80

>  <Rbt.Current_Directory>
/home/hitesit/Python_Packages/Docking_Pipelines/HandsFreeDocking/Prototypes

>  <Rbt.Executable>
rbdock/0.1.0

>  <Rbt.Library>
librxdock.so/0.1.0

>  <Rbt.Parameter_File>
/home/hitesit/Software/rxdock/rxdock_installation/data/scripts/dock.prm

>  <Rbt.Receptor>
probe.prmtop

>  <SCORE>
-17.9201

>  <SCORE.INTER>
-14.704

>  <SCORE.INTER.CONST>
1

>  <SCORE.INTER.POLAR>
-2.66973

>  <SCORE.INTER.REPUL>
0

>  <SCORE.INTER.ROT>
4

>  <SCORE.INTER.VDW>
-15.0269

>  <SCORE.INTER.norm>
-0.864941

>  <SCORE.INTRA>
-3.21615

>  <SCORE.INTRA.DIHEDRAL>
-8.05517

>  <SCORE.INTRA.DIHEDRAL.0>
10.682

>  <SCORE.INTRA.POLAR>
0

>  <SCORE.INTRA.POLAR.0>
0

>  <SCORE.INTRA.REPUL>
0

>  <SCORE.INTRA.REPUL.0>
0

>  <SCORE.INTRA.VDW>
0.811435

>  <SCORE.INTRA.VDW.0>
-0.0324487

>  <SCORE.INTRA.norm>
-0.189185

>  <SCORE.RESTR>
0

>  <SCORE.RESTR.CAVITY>
0

>  <SCORE.RESTR.norm>
0

>  <SCORE.SYSTEM>
0

>  <SCORE.SYSTEM.CONST>
0

>  <SCORE.SYSTEM.DIHEDRAL>
0

>  <SCORE.SYSTEM.norm>
0

>  <SCORE.heavy>
17

>  <SCORE.norm>
-1.05413

$$$$
ligand
  RxDock  05162517583D
librxdock.so/0.1.0
 18 19  0  0  0  0  0  0  0  0999 V2000
  -52.9606   49.5747  -18.0184 C   0  0  0  0  0  0
  -51.6143   49.8187  -17.7360 C   0  0  0  0  0  0
  -51.0900   51.1185  -17.7916 C   0  0  0  0  0  0
  -51.8854   52.2248  -18.1274 C   0  0  0  0  0  0
  -53.2398   51.9437  -18.3916 C   0  0  0  0  0  0
  -53.7843   50.6532  -18.3389 C   0  0  0  0  0  0
  -52.7012   47.3030  -17.5808 O   0  5  0  0  0  0
  -53.5013   48.2112  -17.9591 C   0  0  0  0  0  0
  -54.7141   48.0680  -18.2989 O   0  0  0  0  0  0
  -49.6846   51.2764  -17.4760 C   0  0  0  0  0  0
  -48.8712   50.2651  -17.1399 C   0  0  0  0  0  0
  -54.1364   53.0751  -18.7441 C   0  0  0  0  0  0
  -53.9729   53.4883  -20.1464 C   0  0  0  0  0  0
  -53.1349   54.3881  -20.6061 N   0  0  0  0  0  0
  -53.3429   54.4334  -21.9616 N   0  0  0  0  0  0
  -54.2866   53.5773  -22.3292 N   0  0  0  0  0  0
  -54.7045   52.9824  -21.1907 N   0  0  0  0  0  0
  -55.4456   52.2706  -21.1191 H   0  0  0  0  0  0
  1  2  2  0  0  0
  2  3  1  0  0  0
  3  4  2  0  0  0
  3 10  1  0  0  0
  4  5  1  0  0  0
  5  6  2  0  0  0
  5 12  1  0  0  0
  1  6  1  0  0  0
  7  8  1  0  0  0
  1  8  1  0  0  0
  8  9  2  0  0  0
 10 11  2  0  0  0
 12 13  1  0  0  0
 13 14  2  0  0  0
 14 15  1  0  0  0
 15 16  2  0  0  0
 16 17  1  0  0  0
 13 17  1  0  0  0
 17 18  1  0  0  0
M  END
>  <CHROM.1>
0.02296696,78.68189042,3.25339810,-89.76921734,-52.84029764,51.28405415,-18.96169346
1.22599985,0.43700562,2.65943796

>  <Name>
ligand

>  <RI>
80

>  <Rbt.Current_Directory>
/home/hitesit/Python_Packages/Docking_Pipelines/HandsFreeDocking/Prototypes

>  <Rbt.Executable>
rbdock/0.1.0

>  <Rbt.Library>
librxdock.so/0.1.0

>  <Rbt.Parameter_File>
/home/hitesit/Software/rxdock/rxdock_installation/data/scripts/dock.prm

>  <Rbt.Receptor>
probe.prmtop

>  <SCORE>
-13.3814

>  <SCORE.INTER>
-9.89822

>  <SCORE.INTER.CONST>
1

>  <SCORE.INTER.POLAR>
-1.74982

>  <SCORE.INTER.REPUL>
0

>  <SCORE.INTER.ROT>
4

>  <SCORE.INTER.VDW>
-13.3488

>  <SCORE.INTER.norm>
-0.582248

>  <SCORE.INTRA>
-3.48322

>  <SCORE.INTRA.DIHEDRAL>
-8.551

>  <SCORE.INTRA.DIHEDRAL.0>
10.682

>  <SCORE.INTRA.POLAR>
0

>  <SCORE.INTRA.POLAR.0>
0

>  <SCORE.INTRA.REPUL>
0

>  <SCORE.INTRA.REPUL.0>
0

>  <SCORE.INTRA.VDW>
0.792274

>  <SCORE.INTRA.VDW.0>
-0.0324487

>  <SCORE.INTRA.norm>
-0.204896

>  <SCORE.RESTR>
0

>  <SCORE.RESTR.CAVITY>
0

>  <SCORE.RESTR.norm>
0

>  <SCORE.SYSTEM>
0

>  <SCORE.SYSTEM.CONST>
0

>  <SCORE.SYSTEM.DIHEDRAL>
0

>  <SCORE.SYSTEM.norm>
0

>  <SCORE.heavy>
17

>  <SCORE.norm>
-0.787143

$$$$
ligand
  RxDock  05162517583D
librxdock.so/0.1.0
 18 19  0  0  0  0  0  0  0  0999 V2000
  -53.3604   52.6070  -21.0164 C   0  0  0  0  0  0
  -54.4785   52.0745  -20.3699 C   0  0  0  0  0  0
  -55.7589   52.6028  -20.5912 C   0  0  0  0  0  0
  -55.9758   53.6787  -21.4658 C   0  0  0  0  0  0
  -54.8288   54.1805  -22.1106 C   0  0  0  0  0  0
  -53.5414   53.6656  -21.9058 C   0  0  0  0  0  0
  -51.8923   51.3176  -19.7510 O   0  5  0  0  0  0
  -52.0235   52.0491  -20.7785 C   0  0  0  0  0  0
  -51.1243   52.3568  -21.6172 O   0  0  0  0  0  0
  -56.8598   51.9818  -19.8825 C   0  0  0  0  0  0
  -58.1508   52.2754  -20.0933 C   0  0  0  0  0  0
  -54.9941   55.3144  -23.0566 C   0  0  0  0  0  0
  -54.1770   56.4750  -22.6701 C   0  0  0  0  0  0
  -54.0547   57.6028  -23.3308 N   0  0  0  0  0  0
  -53.1958   58.3766  -22.5919 N   0  0  0  0  0  0
  -52.8002   57.7402  -21.4978 N   0  0  0  0  0  0
  -53.4011   56.5312  -21.5403 N   0  0  0  0  0  0
  -53.2948   55.7801  -20.8435 H   0  0  0  0  0  0
  1  2  2  0  0  0
  2  3  1  0  0  0
  3  4  2  0  0  0
  3 10  1  0  0  0
  4  5  1  0  0  0
  5  6  2  0  0  0
  5 12  1  0  0  0
  1  6  1  0  0  0
  7  8  1  0  0  0
  1  8  1  0  0  0
  8  9  2  0  0  0
 10 11  2  0  0  0
 12 13  1  0  0  0
 13 14  2  0  0  0
 14 15  1  0  0  0
 15 16  2  0  0  0
 16 17  1  0  0  0
 13 17  1  0  0  0
 17 18  1  0  0  0
M  END
>  <CHROM.1>
-172.61425563,122.30210117,-16.70506310,176.58622865,-54.09174497,54.18110685
-21.42088907,-1.76310277,0.04713477,-0.36797453

>  <Name>
ligand

>  <RI>
80

>  <Rbt.Current_Directory>
/home/hitesit/Python_Packages/Docking_Pipelines/HandsFreeDocking/Prototypes

>  <Rbt.Executable>
rbdock/0.1.0

>  <Rbt.Library>
librxdock.so/0.1.0

>  <Rbt.Parameter_File>
/home/hitesit/Software/rxdock/rxdock_installation/data/scripts/dock.prm

>  <Rbt.Receptor>
probe.prmtop

>  <SCORE>
-9.37986

>  <SCORE.INTER>
-6.77084

>  <SCORE.INTER.CONST>
1

>  <SCORE.INTER.POLAR>
0

>  <SCORE.INTER.REPUL>
0

>  <SCORE.INTER.ROT>
4

>  <SCORE.INTER.VDW>
-16.1708

>  <SCORE.INTER.norm>
-0.398285

>  <SCORE.INTRA>
-2.60902

>  <SCORE.INTRA.DIHEDRAL>
-7.44553

>  <SCORE.INTRA.DIHEDRAL.0>
10.682

>  <SCORE.INTRA.POLAR>
0

>  <SCORE.INTRA.POLAR.0>
0

>  <SCORE.INTRA.REPUL>
0

>  <SCORE.INTRA.REPUL.0>
0

>  <SCORE.INTRA.VDW>
1.11375

>  <SCORE.INTRA.VDW.0>
-0.0324487

>  <SCORE.INTRA.norm>
-0.153472

>  <SCORE.RESTR>
0

>  <SCORE.RESTR.CAVITY>
0

>  <SCORE.RESTR.norm>
0

>  <SCORE.SYSTEM>
0

>  <SCORE.SYSTEM.CONST>
0

>  <SCORE.SYSTEM.DIHEDRAL>
0

>  <SCORE.SYSTEM.norm>
0

>  <SCORE.heavy>
17

>  <SCORE.norm>
-0.551756

$$$$
ligand
  RxDock  05162517583D
librxdock.so/0.1.0
 18 19  0  0  0  0  0  0  0  0999 V2000
  -53.2004   52.1295  -17.2876 C   0  0  0  0  0  0
  -52.0555   51.5027  -17.7856 C   0  0  0  0  0  0
  -51.8166   51.4286  -19.1658 C   0  0  0  0  0  0
  -52.7059   51.9775  -20.1025 C   0  0  0  0  0  0
  -53.8412   52.6138  -19.5645 C   0  0  0  0  0  0
  -54.0973   52.7013  -18.1893 C   0  0  0  0  0  0
  -52.8507   51.3391  -15.1261 O   0  5  0  0  0  0
  -53.4437   52.2018  -15.8417 C   0  0  0  0  0  0
  -54.2291   53.1141  -15.4448 O   0  0  0  0  0  0
  -50.5996   50.7659  -19.5895 C   0  0  0  0  0  0
  -49.7482   50.1522  -18.7554 C   0  0  0  0  0  0
  -54.8167   53.2234  -20.5052 C   0  0  0  0  0  0
  -54.2812   54.4373  -21.1406 C   0  0  0  0  0  0
  -53.0319   54.8404  -21.1331 N   0  0  0  0  0  0
  -53.0139   56.0123  -21.8464 N   0  0  0  0  0  0
  -54.2257   56.3226  -22.2866 N   0  0  0  0  0  0
  -55.0403   55.3436  -21.8365 N   0  0  0  0  0  0
  -56.0573   55.2872  -21.9897 H   0  0  0  0  0  0
  1  2  2  0  0  0
  2  3  1  0  0  0
  3  4  2  0  0  0
  3 10  1  0  0  0
  4  5  1  0  0  0
  5  6  2  0  0  0
  5 12  1  0  0  0
  1  6  1  0  0  0
  7  8  1  0  0  0
  1  8  1  0  0  0
  8  9  2  0  0  0
 10 11  2  0  0  0
 12 13  1  0  0  0
 13 14  2  0  0  0
 14 15  1  0  0  0
 15 16  2  0  0  0
 16 17  1  0  0  0
 13 17  1  0  0  0
 17 18  1  0  0  0
M  END
>  <CHROM.1>
4.55891660,-71.31199772,-22.20671914,12.94220499,-53.14197440,52.98259535
-19.12646965,1.21169435,-0.71268738,1.99577817

>  <Name>
ligand

>  <RI>
80

>  <Rbt.Current_Directory>
/home/hitesit/Python_Packages/Docking_Pipelines/HandsFreeDocking/Prototypes

>  <Rbt.Executable>
rbdock/0.1.0

>  <Rbt.Library>
librxdock.so/0.1.0

>  <Rbt.Parameter_File>
/home/hitesit/Software/rxdock/rxdock_installation/data/scripts/dock.prm

>  <Rbt.Receptor>
probe.prmtop

>  <SCORE>
-18.7518

>  <SCORE.INTER>
-16.2206

>  <SCORE.INTER.CONST>
1

>  <SCORE.INTER.POLAR>
-2.51488

>  <SCORE.INTER.REPUL>
0

>  <SCORE.INTER.ROT>
4

>  <SCORE.INTER.VDW>
-17.07

>  <SCORE.INTER.norm>
-0.954155

>  <SCORE.INTRA>
-2.53119

>  <SCORE.INTRA.DIHEDRAL>
-6.81589

>  <SCORE.INTRA.DIHEDRAL.0>
10.682

>  <SCORE.INTRA.POLAR>
0

>  <SCORE.INTRA.POLAR.0>
0

>  <SCORE.INTRA.REPUL>
0

>  <SCORE.INTRA.REPUL.0>
0

>  <SCORE.INTRA.VDW>
0.87676

>  <SCORE.INTRA.VDW.0>
-0.0324487

>  <SCORE.INTRA.norm>
-0.148893

>  <SCORE.RESTR>
0

>  <SCORE.RESTR.CAVITY>
0

>  <SCORE.RESTR.norm>
0

>  <SCORE.SYSTEM>
0

>  <SCORE.SYSTEM.CONST>
0

>  <SCORE.SYSTEM.DIHEDRAL>
0

>  <SCORE.SYSTEM.norm>
0

>  <SCORE.heavy>
17

>  <SCORE.norm>
-1.10305

$$$$
ligand
  RxDock  05162517583D
librxdock.so/0.1.0
 18 19  0  0  0  0  0  0  0  0999 V2000
  -54.2989   52.8267  -18.3546 C   0  0  0  0  0  0
  -53.1351   52.0602  -18.4531 C   0  0  0  0  0  0
  -52.4493   51.9436  -19.6712 C   0  0  0  0  0  0
  -52.8937   52.5872  -20.8364 C   0  0  0  0  0  0
  -54.0612   53.3624  -20.6968 C   0  0  0  0  0  0
  -54.7597   53.4942  -19.4888 C   0  0  0  0  0  0
  -56.0953   53.6005  -17.0923 O   0  5  0  0  0  0
  -55.0113   52.9426  -17.0763 C   0  0  0  0  0  0
  -54.4729   52.3814  -16.0754 O   0  0  0  0  0  0
  -51.2479   51.1335  -19.6765 C   0  0  0  0  0  0
  -50.7696   50.4911  -18.6014 C   0  0  0  0  0  0
  -54.5774   54.0767  -21.8932 C   0  0  0  0  0  0
  -53.9510   55.3976  -22.0564 C   0  0  0  0  0  0
  -52.9421   55.8776  -21.3670 N   0  0  0  0  0  0
  -52.7113   57.1335  -21.8691 N   0  0  0  0  0  0
  -53.5578   57.4195  -22.8490 N   0  0  0  0  0  0
  -54.3570   56.3372  -22.9697 N   0  0  0  0  0  0
  -55.1376   56.2350  -23.6339 H   0  0  0  0  0  0
  1  2  2  0  0  0
  2  3  1  0  0  0
  3  4  2  0  0  0
  3 10  1  0  0  0
  4  5  1  0  0  0
  5  6  2  0  0  0
  5 12  1  0  0  0
  1  6  1  0  0  0
  7  8  1  0  0  0
  1  8  1  0  0  0
  8  9  2  0  0  0
 10 11  2  0  0  0
 12 13  1  0  0  0
 13 14  2  0  0  0
 14 15  1  0  0  0
 15 16  2  0  0  0
 16 17  1  0  0  0
 13 17  1  0  0  0
 17 18  1  0  0  0
M  END
>  <CHROM.1>
0.54748897,-86.76941487,-176.46442344,8.02260508,-53.63623959,53.75014050
-19.92250066,1.54184535,-0.65159836,2.30866957

>  <Name>
ligand

>  <RI>
80

>  <Rbt.Current_Directory>
/home/hitesit/Python_Packages/Docking_Pipelines/HandsFreeDocking/Prototypes

>  <Rbt.Executable>
rbdock/0.1.0

>  <Rbt.Library>
librxdock.so/0.1.0

>  <Rbt.Parameter_File>
/home/hitesit/Software/rxdock/rxdock_installation/data/scripts/dock.prm

>  <Rbt.Receptor>
probe.prmtop

>  <SCORE>
-17.474

>  <SCORE.INTER>
-14.1632

>  <SCORE.INTER.CONST>
1

>  <SCORE.INTER.POLAR>
-0.968451

>  <SCORE.INTER.REPUL>
0

>  <SCORE.INTER.ROT>
4

>  <SCORE.INTER.VDW>
-20.2704

>  <SCORE.INTER.norm>
-0.833128

>  <SCORE.INTRA>
-3.31078

>  <SCORE.INTRA.DIHEDRAL>
-8.55001

>  <SCORE.INTRA.DIHEDRAL.0>
10.682

>  <SCORE.INTRA.POLAR>
0

>  <SCORE.INTRA.POLAR.0>
0

>  <SCORE.INTRA.REPUL>
0

>  <SCORE.INTRA.REPUL.0>
0

>  <SCORE.INTRA.VDW>
0.964226

>  <SCORE.INTRA.VDW.0>
-0.0324487

>  <SCORE.INTRA.norm>
-0.194752

>  <SCORE.RESTR>
0

>  <SCORE.RESTR.CAVITY>
0

>  <SCORE.RESTR.norm>
0

>  <SCORE.SYSTEM>
0

>  <SCORE.SYSTEM.CONST>
0

>  <SCORE.SYSTEM.DIHEDRAL>
0

>  <SCORE.SYSTEM.norm>
0

>  <SCORE.heavy>
17

>  <SCORE.norm>
-1.02788

$$$$
ligand
  RxDock  05162517583D
librxdock.so/0.1.0
 18 19  0  0  0  0  0  0  0  0999 V2000
  -56.4344   52.4155  -17.5452 C   0  0  0  0  0  0
  -55.6300   52.3408  -16.4054 C   0  0  0  0  0  0
  -54.2391   52.1943  -16.5128 C   0  0  0  0  0  0
  -53.5956   52.1195  -17.7577 C   0  0  0  0  0  0
  -54.4356   52.2127  -18.8843 C   0  0  0  0  0  0
  -55.8266   52.3619  -18.7991 C   0  0  0  0  0  0
  -58.3515   52.6548  -16.2465 O   0  5  0  0  0  0
  -57.8895   52.5677  -17.4242 C   0  0  0  0  0  0
  -58.5482   52.5898  -18.5069 O   0  0  0  0  0  0
  -53.4853   52.1329  -15.2768 C   0  0  0  0  0  0
  -54.0300   51.8953  -14.0750 C   0  0  0  0  0  0
  -53.8129   52.1493  -20.2320 C   0  0  0  0  0  0
  -53.8734   53.4450  -20.9259 C   0  0  0  0  0  0
  -52.9616   54.3892  -20.9045 N   0  0  0  0  0  0
  -53.4541   55.4010  -21.6896 N   0  0  0  0  0  0
  -54.6423   55.0851  -22.1866 N   0  0  0  0  0  0
  -54.9272   53.8572  -21.7013 N   0  0  0  0  0  0
  -55.7884   53.3219  -21.8825 H   0  0  0  0  0  0
  1  2  2  0  0  0
  2  3  1  0  0  0
  3  4  2  0  0  0
  3 10  1  0  0  0
  4  5  1  0  0  0
  5  6  2  0  0  0
  5 12  1  0  0  0
  1  6  1  0  0  0
  7  8  1  0  0  0
  1  8  1  0  0  0
  8  9  2  0  0  0
 10 11  2  0  0  0
 12 13  1  0  0  0
 13 14  2  0  0  0
 14 15  1  0  0  0
 15 16  2  0  0  0
 16 17  1  0  0  0
 13 17  1  0  0  0
 17 18  1  0  0  0
M  END
>  <CHROM.1>
16.18175089,-110.30920936,1.50479375,91.75555526,-55.12277168,52.95405304
-18.56551607,1.88660843,0.02342169,1.92867467

>  <Name>
ligand

>  <RI>
80

>  <Rbt.Current_Directory>
/home/hitesit/Python_Packages/Docking_Pipelines/HandsFreeDocking/Prototypes

>  <Rbt.Executable>
rbdock/0.1.0

>  <Rbt.Library>
librxdock.so/0.1.0

>  <Rbt.Parameter_File>
/home/hitesit/Software/rxdock/rxdock_installation/data/scripts/dock.prm

>  <Rbt.Receptor>
probe.prmtop

>  <SCORE>
-14.7502

>  <SCORE.INTER>
-11.6056

>  <SCORE.INTER.CONST>
1

>  <SCORE.INTER.POLAR>
-2.02649

>  <SCORE.INTER.REPUL>
0.0104517

>  <SCORE.INTER.ROT>
4

>  <SCORE.INTER.VDW>
-14.1678

>  <SCORE.INTER.norm>
-0.682683

>  <SCORE.INTRA>
-3.14455

>  <SCORE.INTRA.DIHEDRAL>
-7.65333

>  <SCORE.INTRA.DIHEDRAL.0>
10.682

>  <SCORE.INTRA.POLAR>
0

>  <SCORE.INTRA.POLAR.0>
0

>  <SCORE.INTRA.REPUL>
0

>  <SCORE.INTRA.REPUL.0>
0

>  <SCORE.INTRA.VDW>
0.682112

>  <SCORE.INTRA.VDW.0>
-0.0324487

>  <SCORE.INTRA.norm>
-0.184974

>  <SCORE.RESTR>
0

>  <SCORE.RESTR.CAVITY>
0

>  <SCORE.RESTR.norm>
0

>  <SCORE.SYSTEM>
0

>  <SCORE.SYSTEM.CONST>
0

>  <SCORE.SYSTEM.DIHEDRAL>
0

>  <SCORE.SYSTEM.norm>
0

>  <SCORE.heavy>
17

>  <SCORE.norm>
-0.867657

$$$$
ligand
  RxDock  05162517583D
librxdock.so/0.1.0
 18 19  0  0  0  0  0  0  0  0999 V2000
  -54.2437   50.3353  -17.4890 C   0  0  0  0  0  0
  -54.4466   51.3462  -18.4316 C   0  0  0  0  0  0
  -53.4421   51.6891  -19.3487 C   0  0  0  0  0  0
  -52.1992   51.0378  -19.3645 C   0  0  0  0  0  0
  -52.0351   50.0151  -18.4103 C   0  0  0  0  0  0
  -53.0264   49.6550  -17.4873 C   0  0  0  0  0  0
  -56.3981   50.6056  -16.6496 O   0  5  0  0  0  0
  -55.2997   49.9831  -16.5319 C   0  0  0  0  0  0
  -55.0124   49.0960  -15.6732 O   0  0  0  0  0  0
  -53.7450   52.7450  -20.2938 C   0  0  0  0  0  0
  -52.9187   53.1360  -21.2744 C   0  0  0  0  0  0
  -50.7434   49.2810  -18.3824 C   0  0  0  0  0  0
  -49.7264   49.9900  -17.5905 C   0  0  0  0  0  0
  -48.9265   49.4653  -16.6914 N   0  0  0  0  0  0
  -48.1614   50.5030  -16.2220 N   0  0  0  0  0  0
  -48.4810   51.6418  -16.8216 N   0  0  0  0  0  0
  -49.4786   51.3362  -17.6795 N   0  0  0  0  0  0
  -49.9693   52.0005  -18.2951 H   0  0  0  0  0  0
  1  2  2  0  0  0
  2  3  1  0  0  0
  3  4  2  0  0  0
  3 10  1  0  0  0
  4  5  1  0  0  0
  5  6  2  0  0  0
  5 12  1  0  0  0
  1  6  1  0  0  0
  7  8  1  0  0  0
  1  8  1  0  0  0
  8  9  2  0  0  0
 10 11  2  0  0  0
 12 13  1  0  0  0
 13 14  2  0  0  0
 14 15  1  0  0  0
 15 16  2  0  0  0
 16 17  1  0  0  0
 13 17  1  0  0  0
 17 18  1  0  0  0
M  END
>  <CHROM.1>
-176.29341142,84.31250840,2.61463755,134.02233788,-52.25259213,50.69309388
-17.85837702,3.04441354,-0.02430082,-0.95554611

>  <Name>
ligand

>  <RI>
80

>  <Rbt.Current_Directory>
/home/hitesit/Python_Packages/Docking_Pipelines/HandsFreeDocking/Prototypes

>  <Rbt.Executable>
rbdock/0.1.0

>  <Rbt.Library>
librxdock.so/0.1.0

>  <Rbt.Parameter_File>
/home/hitesit/Software/rxdock/rxdock_installation/data/scripts/dock.prm

>  <Rbt.Receptor>
probe.prmtop

>  <SCORE>
-12.2635

>  <SCORE.INTER>
-8.2032

>  <SCORE.INTER.CONST>
1

>  <SCORE.INTER.POLAR>
-1.85529

>  <SCORE.INTER.REPUL>
0

>  <SCORE.INTER.ROT>
4

>  <SCORE.INTER.VDW>
-11.2952

>  <SCORE.INTER.norm>
-0.482541

>  <SCORE.INTRA>
-4.06031

>  <SCORE.INTRA.DIHEDRAL>
-8.52628

>  <SCORE.INTRA.DIHEDRAL.0>
10.682

>  <SCORE.INTRA.POLAR>
0

>  <SCORE.INTRA.POLAR.0>
0

>  <SCORE.INTRA.REPUL>
0

>  <SCORE.INTRA.REPUL.0>
0

>  <SCORE.INTRA.VDW>
0.202831

>  <SCORE.INTRA.VDW.0>
-0.0324487

>  <SCORE.INTRA.norm>
-0.238842

>  <SCORE.RESTR>
0

>  <SCORE.RESTR.CAVITY>
0

>  <SCORE.RESTR.norm>
0

>  <SCORE.SYSTEM>
0

>  <SCORE.SYSTEM.CONST>
0

>  <SCORE.SYSTEM.DIHEDRAL>
0

>  <SCORE.SYSTEM.norm>
0

>  <SCORE.heavy>
17

>  <SCORE.norm>
-0.721383

$$$$
ligand
  RxDock  05162517583D
librxdock.so/0.1.0
 18 19  0  0  0  0  0  0  0  0999 V2000
  -50.4709   51.3919  -17.1082 C   0  0  0  0  0  0
  -50.6793   50.0107  -17.1334 C   0  0  0  0  0  0
  -51.9166   49.4751  -17.5207 C   0  0  0  0  0  0
  -52.9921   50.2929  -17.9001 C   0  0  0  0  0  0
  -52.7417   51.6786  -17.8767 C   0  0  0  0  0  0
  -51.5125   52.2340  -17.4958 C   0  0  0  0  0  0
  -48.2065   51.1263  -16.6381 O   0  5  0  0  0  0
  -49.1733   51.9444  -16.7006 C   0  0  0  0  0  0
  -49.1425   53.1849  -16.4419 O   0  0  0  0  0  0
  -52.0382   48.0312  -17.5231 C   0  0  0  0  0  0
  -51.1002   47.1969  -17.0525 C   0  0  0  0  0  0
  -53.8387   52.5976  -18.2769 C   0  0  0  0  0  0
  -54.9901   52.5072  -17.3658 C   0  0  0  0  0  0
  -55.0491   51.8322  -16.2413 N   0  0  0  0  0  0
  -56.3108   52.0435  -15.7454 N   0  0  0  0  0  0
  -57.0127   52.8345  -16.5457 N   0  0  0  0  0  0
  -56.1959   53.1245  -17.5816 N   0  0  0  0  0  0
  -56.4372   53.7093  -18.3946 H   0  0  0  0  0  0
  1  2  2  0  0  0
  2  3  1  0  0  0
  3  4  2  0  0  0
  3 10  1  0  0  0
  4  5  1  0  0  0
  5  6  2  0  0  0
  5 12  1  0  0  0
  1  6  1  0  0  0
  7  8  1  0  0  0
  1  8  1  0  0  0
  8  9  2  0  0  0
 10 11  2  0  0  0
 12 13  1  0  0  0
 13 14  2  0  0  0
 14 15  1  0  0  0
 15 16  2  0  0  0
 16 17  1  0  0  0
 13 17  1  0  0  0
 17 18  1  0  0  0
M  END
>  <CHROM.1>
7.14259580,63.43302501,13.52593554,7.22012249,-52.54391620,51.30458803,-17.10696570
-0.29685700,-0.01870824,0.08217519

>  <Name>
ligand

>  <RI>
80

>  <Rbt.Current_Directory>
/home/hitesit/Python_Packages/Docking_Pipelines/HandsFreeDocking/Prototypes

>  <Rbt.Executable>
rbdock/0.1.0

>  <Rbt.Library>
librxdock.so/0.1.0

>  <Rbt.Parameter_File>
/home/hitesit/Software/rxdock/rxdock_installation/data/scripts/dock.prm

>  <Rbt.Receptor>
probe.prmtop

>  <SCORE>
-11.0438

>  <SCORE.INTER>
-8.24329

>  <SCORE.INTER.CONST>
1

>  <SCORE.INTER.POLAR>
-1.73485

>  <SCORE.INTER.REPUL>
0.0255142

>  <SCORE.INTER.ROT>
4

>  <SCORE.INTER.VDW>
-11.8724

>  <SCORE.INTER.norm>
-0.484899

>  <SCORE.INTRA>
-2.80051

>  <SCORE.INTRA.DIHEDRAL>
-7.6654

>  <SCORE.INTRA.DIHEDRAL.0>
10.682

>  <SCORE.INTRA.POLAR>
0

>  <SCORE.INTRA.POLAR.0>
0

>  <SCORE.INTRA.REPUL>
0

>  <SCORE.INTRA.REPUL.0>
0

>  <SCORE.INTRA.VDW>
1.03219

>  <SCORE.INTRA.VDW.0>
-0.0324487

>  <SCORE.INTRA.norm>
-0.164736

>  <SCORE.RESTR>
0

>  <SCORE.RESTR.CAVITY>
0

>  <SCORE.RESTR.norm>
0

>  <SCORE.SYSTEM>
0

>  <SCORE.SYSTEM.CONST>
0

>  <SCORE.SYSTEM.DIHEDRAL>
0

>  <SCORE.SYSTEM.norm>
0

>  <SCORE.heavy>
17

>  <SCORE.norm>
-0.649635

$$$$
ligand
  RxDock  05162517583D
librxdock.so/0.1.0
 18 19  0  0  0  0  0  0  0  0999 V2000
  -54.7104   52.6745  -17.7595 C   0  0  0  0  0  0
  -53.4956   52.0238  -17.5298 C   0  0  0  0  0  0
  -52.6289   51.7195  -18.5899 C   0  0  0  0  0  0
  -52.9364   52.0533  -19.9178 C   0  0  0  0  0  0
  -54.1614   52.7208  -20.1103 C   0  0  0  0  0  0
  -55.0402   53.0366  -19.0651 C   0  0  0  0  0  0
  -55.2212   52.6444  -15.4886 O   0  5  0  0  0  0
  -55.6124   52.9884  -16.6447 C   0  0  0  0  0  0
  -56.7005   53.5664  -16.9426 O   0  0  0  0  0  0
  -51.3881   51.0499  -18.2554 C   0  0  0  0  0  0
  -50.5022   50.6119  -19.1613 C   0  0  0  0  0  0
  -54.5399   53.1096  -21.4936 C   0  0  0  0  0  0
  -54.1103   54.4792  -21.8156 C   0  0  0  0  0  0
  -53.0637   55.1068  -21.3319 N   0  0  0  0  0  0
  -53.0705   56.3484  -21.9160 N   0  0  0  0  0  0
  -54.0976   56.4812  -22.7443 N   0  0  0  0  0  0
  -54.7722   55.3127  -22.6810 N   0  0  0  0  0  0
  -55.6359   55.0863  -23.1946 H   0  0  0  0  0  0
  1  2  2  0  0  0
  2  3  1  0  0  0
  3  4  2  0  0  0
  3 10  1  0  0  0
  4  5  1  0  0  0
  5  6  2  0  0  0
  5 12  1  0  0  0
  1  6  1  0  0  0
  7  8  1  0  0  0
  1  8  1  0  0  0
  8  9  2  0  0  0
 10 11  2  0  0  0
 12 13  1  0  0  0
 13 14  2  0  0  0
 14 15  1  0  0  0
 15 16  2  0  0  0
 16 17  1  0  0  0
 13 17  1  0  0  0
 17 18  1  0  0  0
M  END
>  <CHROM.1>
175.21239316,-92.86302201,0.36305786,30.09611419,-53.92485109,53.33207195
-19.49246664,1.61178870,-0.57048721,2.16625053

>  <Name>
ligand

>  <RI>
80

>  <Rbt.Current_Directory>
/home/hitesit/Python_Packages/Docking_Pipelines/HandsFreeDocking/Prototypes

>  <Rbt.Executable>
rbdock/0.1.0

>  <Rbt.Library>
librxdock.so/0.1.0

>  <Rbt.Parameter_File>
/home/hitesit/Software/rxdock/rxdock_installation/data/scripts/dock.prm

>  <Rbt.Receptor>
probe.prmtop

>  <SCORE>
-17.6824

>  <SCORE.INTER>
-13.7836

>  <SCORE.INTER.CONST>
1

>  <SCORE.INTER.POLAR>
-1.27988

>  <SCORE.INTER.REPUL>
0

>  <SCORE.INTER.ROT>
4

>  <SCORE.INTER.VDW>
-18.832

>  <SCORE.INTER.norm>
-0.810798

>  <SCORE.INTRA>
-3.89885

>  <SCORE.INTRA.DIHEDRAL>
-8.50887

>  <SCORE.INTRA.DIHEDRAL.0>
10.682

>  <SCORE.INTRA.POLAR>
0

>  <SCORE.INTRA.POLAR.0>
0

>  <SCORE.INTRA.REPUL>
0

>  <SCORE.INTRA.REPUL.0>
0

>  <SCORE.INTRA.VDW>
0.355584

>  <SCORE.INTRA.VDW.0>
-0.0324487

>  <SCORE.INTRA.norm>
-0.229344

>  <SCORE.RESTR>
0

>  <SCORE.RESTR.CAVITY>
0

>  <SCORE.RESTR.norm>
0

>  <SCORE.SYSTEM>
0

>  <SCORE.SYSTEM.CONST>
0

>  <SCORE.SYSTEM.DIHEDRAL>
0

>  <SCORE.SYSTEM.norm>
0

>  <SCORE.heavy>
17

>  <SCORE.norm>
-1.04014

$$$$
ligand
  RxDock  05162517583D
librxdock.so/0.1.0
 18 19  0  0  0  0  0  0  0  0999 V2000
  -54.3093   52.7689  -18.2837 C   0  0  0  0  0  0
  -53.1413   52.0047  -18.3423 C   0  0  0  0  0  0
  -52.4339   51.8600  -19.5449 C   0  0  0  0  0  0
  -52.8599   52.4721  -20.7337 C   0  0  0  0  0  0
  -54.0323   53.2460  -20.6342 C   0  0  0  0  0  0
  -54.7524   53.4057  -19.4424 C   0  0  0  0  0  0
  -56.0497   53.6872  -17.0399 O   0  5  0  0  0  0
  -55.0445   52.9144  -17.0214 C   0  0  0  0  0  0
  -54.6016   52.2606  -16.0299 O   0  0  0  0  0  0
  -51.2298   51.0546  -19.5085 C   0  0  0  0  0  0
  -50.7239   50.5085  -18.3936 C   0  0  0  0  0  0
  -54.5299   53.9276  -21.8572 C   0  0  0  0  0  0
  -53.9635   55.2775  -22.0020 C   0  0  0  0  0  0
  -52.9658   55.7868  -21.3174 N   0  0  0  0  0  0
  -52.7969   57.0613  -21.7966 N   0  0  0  0  0  0
  -53.6698   57.3301  -22.7581 N   0  0  0  0  0  0
  -54.4234   56.2168  -22.8896 N   0  0  0  0  0  0
  -55.2090   56.0942  -23.5445 H   0  0  0  0  0  0
  1  2  2  0  0  0
  2  3  1  0  0  0
  3  4  2  0  0  0
  3 10  1  0  0  0
  4  5  1  0  0  0
  5  6  2  0  0  0
  5 12  1  0  0  0
  1  6  1  0  0  0
  7  8  1  0  0  0
  1  8  1  0  0  0
  8  9  2  0  0  0
 10 11  2  0  0  0
 12 13  1  0  0  0
 13 14  2  0  0  0
 14 15  1  0  0  0
 15 16  2  0  0  0
 16 17  1  0  0  0
 13 17  1  0  0  0
 17 18  1  0  0  0
M  END
>  <CHROM.1>
-3.67377627,-90.02937460,176.05709142,11.75343928,-53.65184436,53.67583625
-19.83881001,1.52144589,-0.64632931,2.29286098

>  <Name>
ligand

>  <RI>
80

>  <Rbt.Current_Directory>
/home/hitesit/Python_Packages/Docking_Pipelines/HandsFreeDocking/Prototypes

>  <Rbt.Executable>
rbdock/0.1.0

>  <Rbt.Library>
librxdock.so/0.1.0

>  <Rbt.Parameter_File>
/home/hitesit/Software/rxdock/rxdock_installation/data/scripts/dock.prm

>  <Rbt.Receptor>
probe.prmtop

>  <SCORE>
-17.4883

>  <SCORE.INTER>
-14.1801

>  <SCORE.INTER.CONST>
1

>  <SCORE.INTER.POLAR>
-0.977374

>  <SCORE.INTER.REPUL>
0

>  <SCORE.INTER.ROT>
4

>  <SCORE.INTER.VDW>
-20.257

>  <SCORE.INTER.norm>
-0.834122

>  <SCORE.INTRA>
-3.30823

>  <SCORE.INTRA.DIHEDRAL>
-8.51522

>  <SCORE.INTRA.DIHEDRAL.0>
10.682

>  <SCORE.INTRA.POLAR>
0

>  <SCORE.INTRA.POLAR.0>
0

>  <SCORE.INTRA.REPUL>
0

>  <SCORE.INTRA.REPUL.0>
0

>  <SCORE.INTRA.VDW>
0.949374

>  <SCORE.INTRA.VDW.0>
-0.0324487

>  <SCORE.INTRA.norm>
-0.194602

>  <SCORE.RESTR>
0

>  <SCORE.RESTR.CAVITY>
0

>  <SCORE.RESTR.norm>
0

>  <SCORE.SYSTEM>
0

>  <SCORE.SYSTEM.CONST>
0

>  <SCORE.SYSTEM.DIHEDRAL>
0

>  <SCORE.SYSTEM.norm>
0

>  <SCORE.heavy>
17

>  <SCORE.norm>
-1.02872

$$$$
ligand
  RxDock  05162517583D
librxdock.so/0.1.0
 18 19  0  0  0  0  0  0  0  0999 V2000
  -52.1197   51.6449  -19.3086 C   0  0  0  0  0  0
  -52.9142   51.8378  -18.1758 C   0  0  0  0  0  0
  -54.1296   52.5333  -18.2575 C   0  0  0  0  0  0
  -54.6018   53.0607  -19.4692 C   0  0  0  0  0  0
  -53.7826   52.8350  -20.5923 C   0  0  0  0  0  0
  -52.5666   52.1406  -20.5330 C   0  0  0  0  0  0
  -50.2459   50.6903  -20.3071 O   0  5  0  0  0  0
  -50.8484   50.9169  -19.2145 C   0  0  0  0  0  0
  -50.4760   50.5763  -18.0518 O   0  0  0  0  0  0
  -54.8897   52.6783  -17.0323 C   0  0  0  0  0  0
  -56.1167   53.2148  -16.9678 C   0  0  0  0  0  0
  -54.2326   53.3610  -21.9071 C   0  0  0  0  0  0
  -53.9186   54.7896  -22.0632 C   0  0  0  0  0  0
  -53.0488   55.4821  -21.3651 N   0  0  0  0  0  0
  -53.1030   56.7594  -21.8633 N   0  0  0  0  0  0
  -53.9850   56.8507  -22.8494 N   0  0  0  0  0  0
  -54.5191   55.6167  -22.9781 N   0  0  0  0  0  0
  -55.2518   55.3436  -23.6486 H   0  0  0  0  0  0
  1  2  2  0  0  0
  2  3  1  0  0  0
  3  4  2  0  0  0
  3 10  1  0  0  0
  4  5  1  0  0  0
  5  6  2  0  0  0
  5 12  1  0  0  0
  1  6  1  0  0  0
  7  8  1  0  0  0
  1  8  1  0  0  0
  8  9  2  0  0  0
 10 11  2  0  0  0
 12 13  1  0  0  0
 13 14  2  0  0  0
 14 15  1  0  0  0
 15 16  2  0  0  0
 16 17  1  0  0  0
 13 17  1  0  0  0
 17 18  1  0  0  0
M  END
>  <CHROM.1>
-174.13978704,81.33146009,174.28893055,18.11193726,-53.22822350,53.24261646
-20.08443422,-1.18715877,0.55395916,-0.89819025

>  <Name>
ligand

>  <RI>
80

>  <Rbt.Current_Directory>
/home/hitesit/Python_Packages/Docking_Pipelines/HandsFreeDocking/Prototypes

>  <Rbt.Executable>
rbdock/0.1.0

>  <Rbt.Library>
librxdock.so/0.1.0

>  <Rbt.Parameter_File>
/home/hitesit/Software/rxdock/rxdock_installation/data/scripts/dock.prm

>  <Rbt.Receptor>
probe.prmtop

>  <SCORE>
-20.5001

>  <SCORE.INTER>
-16.6922

>  <SCORE.INTER.CONST>
1

>  <SCORE.INTER.POLAR>
-2.18588

>  <SCORE.INTER.REPUL>
0

>  <SCORE.INTER.ROT>
4

>  <SCORE.INTER.VDW>
-18.6602

>  <SCORE.INTER.norm>
-0.981893

>  <SCORE.INTRA>
-3.8079

>  <SCORE.INTRA.DIHEDRAL>
-8.3904

>  <SCORE.INTRA.DIHEDRAL.0>
10.682

>  <SCORE.INTRA.POLAR>
0

>  <SCORE.INTRA.POLAR.0>
0

>  <SCORE.INTRA.REPUL>
0

>  <SCORE.INTRA.REPUL.0>
0

>  <SCORE.INTRA.VDW>
0.387299

>  <SCORE.INTRA.VDW.0>
-0.0324487

>  <SCORE.INTRA.norm>
-0.223994

>  <SCORE.RESTR>
0

>  <SCORE.RESTR.CAVITY>
0

>  <SCORE.RESTR.norm>
0

>  <SCORE.SYSTEM>
0

>  <SCORE.SYSTEM.CONST>
0

>  <SCORE.SYSTEM.DIHEDRAL>
0

>  <SCORE.SYSTEM.norm>
0

>  <SCORE.heavy>
17

>  <SCORE.norm>
-1.20589

$$$$
ligand
  RxDock  05162517583D
librxdock.so/0.1.0
 18 19  0  0  0  0  0  0  0  0999 V2000
  -54.6149   52.6247  -17.7825 C   0  0  0  0  0  0
  -53.3875   51.9911  -17.5736 C   0  0  0  0  0  0
  -52.5309   51.7067  -18.6474 C   0  0  0  0  0  0
  -52.8615   52.0442  -19.9688 C   0  0  0  0  0  0
  -54.0990   52.6943  -20.1401 C   0  0  0  0  0  0
  -54.9681   52.9900  -19.0810 C   0  0  0  0  0  0
  -55.1285   52.5063  -15.5150 O   0  5  0  0  0  0
  -55.5063   52.9177  -16.6535 C   0  0  0  0  0  0
  -56.5729   53.5473  -16.9231 O   0  0  0  0  0  0
  -51.2757   51.0539  -18.3342 C   0  0  0  0  0  0
  -50.3849   50.6564  -19.2540 C   0  0  0  0  0  0
  -54.5022   53.0860  -21.5156 C   0  0  0  0  0  0
  -54.1036   54.4662  -21.8321 C   0  0  0  0  0  0
  -53.0714   55.1154  -21.3458 N   0  0  0  0  0  0
  -53.1062   56.3588  -21.9249 N   0  0  0  0  0  0
  -54.1360   56.4717  -22.7528 N   0  0  0  0  0  0
  -54.7841   55.2881  -22.6942 N   0  0  0  0  0  0
  -55.6425   55.0443  -23.2089 H   0  0  0  0  0  0
  1  2  2  0  0  0
  2  3  1  0  0  0
  3  4  2  0  0  0
  3 10  1  0  0  0
  4  5  1  0  0  0
  5  6  2  0  0  0
  5 12  1  0  0  0
  1  6  1  0  0  0
  7  8  1  0  0  0
  1  8  1  0  0  0
  8  9  2  0  0  0
 10 11  2  0  0  0
 12 13  1  0  0  0
 13 14  2  0  0  0
 14 15  1  0  0  0
 15 16  2  0  0  0
 16 17  1  0  0  0
 13 17  1  0  0  0
 17 18  1  0  0  0
M  END
>  <CHROM.1>
176.44389818,-93.14032423,-3.43225228,29.33403197,-53.86554583,53.30742859
-19.52062247,1.58545485,-0.56687450,2.16042484

>  <Name>
ligand

>  <RI>
80

>  <Rbt.Current_Directory>
/home/hitesit/Python_Packages/Docking_Pipelines/HandsFreeDocking/Prototypes

>  <Rbt.Executable>
rbdock/0.1.0

>  <Rbt.Library>
librxdock.so/0.1.0

>  <Rbt.Parameter_File>
/home/hitesit/Software/rxdock/rxdock_installation/data/scripts/dock.prm

>  <Rbt.Receptor>
probe.prmtop

>  <SCORE>
-17.6952

>  <SCORE.INTER>
-13.7916

>  <SCORE.INTER.CONST>
1

>  <SCORE.INTER.POLAR>
-1.26645

>  <SCORE.INTER.REPUL>
0

>  <SCORE.INTER.ROT>
4

>  <SCORE.INTER.VDW>
-18.8857

>  <SCORE.INTER.norm>
-0.811271

>  <SCORE.INTRA>
-3.9036

>  <SCORE.INTRA.DIHEDRAL>
-8.52496

>  <SCORE.INTRA.DIHEDRAL.0>
10.682

>  <SCORE.INTRA.POLAR>
0

>  <SCORE.INTRA.POLAR.0>
0

>  <SCORE.INTRA.REPUL>
0

>  <SCORE.INTRA.REPUL.0>
0

>  <SCORE.INTRA.VDW>
0.358877

>  <SCORE.INTRA.VDW.0>
-0.0324487

>  <SCORE.INTRA.norm>
-0.229624

>  <SCORE.RESTR>
0

>  <SCORE.RESTR.CAVITY>
0

>  <SCORE.RESTR.norm>
0

>  <SCORE.SYSTEM>
0

>  <SCORE.SYSTEM.CONST>
0

>  <SCORE.SYSTEM.DIHEDRAL>
0

>  <SCORE.SYSTEM.norm>
0

>  <SCORE.heavy>
17

>  <SCORE.norm>
-1.04089

$$$$
ligand
  RxDock  05162517583D
librxdock.so/0.1.0
 18 19  0  0  0  0  0  0  0  0999 V2000
  -50.4388   50.8953  -17.5283 C   0  0  0  0  0  0
  -49.9587   51.7972  -16.5756 C   0  0  0  0  0  0
  -50.8094   52.3346  -15.5983 C   0  0  0  0  0  0
  -52.1688   51.9930  -15.5301 C   0  0  0  0  0  0
  -52.6146   51.0709  -16.4966 C   0  0  0  0  0  0
  -51.7809   50.5202  -17.4796 C   0  0  0  0  0  0
  -48.3386   50.1468  -18.1979 O   0  5  0  0  0  0
  -49.5421   50.3383  -18.5486 C   0  0  0  0  0  0
  -50.0524   50.1084  -19.6859 O   0  0  0  0  0  0
  -50.2216   53.2567  -14.6475 C   0  0  0  0  0  0
  -48.9293   53.6134  -14.6466 C   0  0  0  0  0  0
  -54.0429   50.6618  -16.4713 C   0  0  0  0  0  0
  -54.9451   51.8065  -16.6708 C   0  0  0  0  0  0
  -54.6313   53.0778  -16.5772 N   0  0  0  0  0  0
  -55.7873   53.7677  -16.8423 N   0  0  0  0  0  0
  -56.7908   52.9389  -17.0970 N   0  0  0  0  0  0
  -56.2772   51.6952  -16.9785 N   0  0  0  0  0  0
  -56.7970   50.8141  -17.0988 H   0  0  0  0  0  0
  1  2  2  0  0  0
  2  3  1  0  0  0
  3  4  2  0  0  0
  3 10  1  0  0  0
  4  5  1  0  0  0
  5  6  2  0  0  0
  5 12  1  0  0  0
  1  6  1  0  0  0
  7  8  1  0  0  0
  1  8  1  0  0  0
  8  9  2  0  0  0
 10 11  2  0  0  0
 12 13  1  0  0  0
 13 14  2  0  0  0
 14 15  1  0  0  0
 15 16  2  0  0  0
 16 17  1  0  0  0
 13 17  1  0  0  0
 17 18  1  0  0  0
M  END
>  <CHROM.1>
-0.33898908,60.81414707,33.39568274,-15.26929711,-52.20674381,51.75202828
-16.84209319,0.20400022,0.10392513,-2.27373252

>  <Name>
ligand

>  <RI>
80

>  <Rbt.Current_Directory>
/home/hitesit/Python_Packages/Docking_Pipelines/HandsFreeDocking/Prototypes

>  <Rbt.Executable>
rbdock/0.1.0

>  <Rbt.Library>
librxdock.so/0.1.0

>  <Rbt.Parameter_File>
/home/hitesit/Software/rxdock/rxdock_installation/data/scripts/dock.prm

>  <Rbt.Receptor>
probe.prmtop

>  <SCORE>
-13.3839

>  <SCORE.INTER>
-11.9898

>  <SCORE.INTER.CONST>
1

>  <SCORE.INTER.POLAR>
-2.46619

>  <SCORE.INTER.REPUL>
0.012163

>  <SCORE.INTER.ROT>
4

>  <SCORE.INTER.VDW>
-13.0656

>  <SCORE.INTER.norm>
-0.705285

>  <SCORE.INTRA>
-1.39404

>  <SCORE.INTRA.DIHEDRAL>
-4.62092

>  <SCORE.INTRA.DIHEDRAL.0>
10.682

>  <SCORE.INTRA.POLAR>
0

>  <SCORE.INTRA.POLAR.0>
0

>  <SCORE.INTRA.REPUL>
0

>  <SCORE.INTRA.REPUL.0>
0

>  <SCORE.INTRA.VDW>
0.916419

>  <SCORE.INTRA.VDW.0>
-0.0324487

>  <SCORE.INTRA.norm>
-0.0820023

>  <SCORE.RESTR>
0

>  <SCORE.RESTR.CAVITY>
0

>  <SCORE.RESTR.norm>
0

>  <SCORE.SYSTEM>
0

>  <SCORE.SYSTEM.CONST>
0

>  <SCORE.SYSTEM.DIHEDRAL>
0

>  <SCORE.SYSTEM.norm>
0

>  <SCORE.heavy>
17

>  <SCORE.norm>
-0.787287

$$$$
ligand
  RxDock  05162517583D
librxdock.so/0.1.0
 18 19  0  0  0  0  0  0  0  0999 V2000
  -53.3098   52.1530  -17.3415 C   0  0  0  0  0  0
  -52.1539   51.5525  -17.8465 C   0  0  0  0  0  0
  -51.8918   51.5380  -19.2244 C   0  0  0  0  0  0
  -52.7681   52.1226  -20.1516 C   0  0  0  0  0  0
  -53.9152   52.7309  -19.6062 C   0  0  0  0  0  0
  -54.1944   52.7588  -18.2330 C   0  0  0  0  0  0
  -53.0925   51.2015  -15.2280 O   0  5  0  0  0  0
  -53.5772   52.1628  -15.8981 C   0  0  0  0  0  0
  -54.2736   53.1262  -15.4581 O   0  0  0  0  0  0
  -50.6649   50.8988  -19.6554 C   0  0  0  0  0  0
  -49.8027   50.2913  -18.8278 C   0  0  0  0  0  0
  -54.8779   53.3759  -20.5363 C   0  0  0  0  0  0
  -54.3053   54.5692  -21.1782 C   0  0  0  0  0  0
  -53.0472   54.9437  -21.1566 N   0  0  0  0  0  0
  -52.9916   56.1060  -21.8835 N   0  0  0  0  0  0
  -54.1893   56.4385  -22.3456 N   0  0  0  0  0  0
  -55.0328   55.4841  -21.8962 N   0  0  0  0  0  0
  -56.0485   55.4491  -22.0639 H   0  0  0  0  0  0
  1  2  2  0  0  0
  2  3  1  0  0  0
  3  4  2  0  0  0
  3 10  1  0  0  0
  4  5  1  0  0  0
  5  6  2  0  0  0
  5 12  1  0  0  0
  1  6  1  0  0  0
  7  8  1  0  0  0
  1  8  1  0  0  0
  8  9  2  0  0  0
 10 11  2  0  0  0
 12 13  1  0  0  0
 13 14  2  0  0  0
 14 15  1  0  0  0
 15 16  2  0  0  0
 16 17  1  0  0  0
 13 17  1  0  0  0
 17 18  1  0  0  0
M  END
>  <CHROM.1>
2.30170090,-67.56646534,-28.49378209,11.12960078,-53.20604617,53.05995337
-19.17760668,1.25861933,-0.68997310,2.04225374

>  <Name>
ligand

>  <RI>
80

>  <Rbt.Current_Directory>
/home/hitesit/Python_Packages/Docking_Pipelines/HandsFreeDocking/Prototypes

>  <Rbt.Executable>
rbdock/0.1.0

>  <Rbt.Library>
librxdock.so/0.1.0

>  <Rbt.Parameter_File>
/home/hitesit/Software/rxdock/rxdock_installation/data/scripts/dock.prm

>  <Rbt.Receptor>
probe.prmtop

>  <SCORE>
-18.7043

>  <SCORE.INTER>
-16.6389

>  <SCORE.INTER.CONST>
1

>  <SCORE.INTER.POLAR>
-2.62427

>  <SCORE.INTER.REPUL>
0

>  <SCORE.INTER.ROT>
4

>  <SCORE.INTER.VDW>
-17.1164

>  <SCORE.INTER.norm>
-0.978761

>  <SCORE.INTRA>
-2.06534

>  <SCORE.INTRA.DIHEDRAL>
-5.80935

>  <SCORE.INTRA.DIHEDRAL.0>
10.682

>  <SCORE.INTRA.POLAR>
0

>  <SCORE.INTRA.POLAR.0>
0

>  <SCORE.INTRA.REPUL>
0

>  <SCORE.INTRA.REPUL.0>
0

>  <SCORE.INTRA.VDW>
0.839333

>  <SCORE.INTRA.VDW.0>
-0.0324487

>  <SCORE.INTRA.norm>
-0.121491

>  <SCORE.RESTR>
0

>  <SCORE.RESTR.CAVITY>
0

>  <SCORE.RESTR.norm>
0

>  <SCORE.SYSTEM>
0

>  <SCORE.SYSTEM.CONST>
0

>  <SCORE.SYSTEM.DIHEDRAL>
0

>  <SCORE.SYSTEM.norm>
0

>  <SCORE.heavy>
17

>  <SCORE.norm>
-1.10025

$$$$
ligand
  RxDock  05162517583D
librxdock.so/0.1.0
 18 19  0  0  0  0  0  0  0  0999 V2000
  -55.1271   53.2835  -22.4603 C   0  0  0  0  0  0
  -54.7420   54.6259  -22.5000 C   0  0  0  0  0  0
  -53.8535   55.1496  -21.5493 C   0  0  0  0  0  0
  -53.3125   54.3574  -20.5250 C   0  0  0  0  0  0
  -53.7112   53.0067  -20.5243 C   0  0  0  0  0  0
  -54.5953   52.4629  -21.4662 C   0  0  0  0  0  0
  -56.5258   53.5698  -24.2990 O   0  5  0  0  0  0
  -56.0583   52.7435  -23.4584 C   0  0  0  0  0  0
  -56.3138   51.5043  -23.3819 O   0  0  0  0  0  0
  -53.5056   56.5507  -21.6737 C   0  0  0  0  0  0
  -53.6036   57.2515  -22.8123 C   0  0  0  0  0  0
  -53.1652   52.1136  -19.4697 C   0  0  0  0  0  0
  -51.8389   51.5879  -19.8284 C   0  0  0  0  0  0
  -51.0873   50.7940  -19.1016 N   0  0  0  0  0  0
  -49.9518   50.5762  -19.8403 N   0  0  0  0  0  0
  -50.0045   51.2196  -20.9988 N   0  0  0  0  0  0
  -51.1855   51.8751  -20.9998 N   0  0  0  0  0  0
  -51.5355   52.4861  -21.7517 H   0  0  0  0  0  0
  1  2  2  0  0  0
  2  3  1  0  0  0
  3  4  2  0  0  0
  3 10  1  0  0  0
  4  5  1  0  0  0
  5  6  2  0  0  0
  5 12  1  0  0  0
  1  6  1  0  0  0
  7  8  1  0  0  0
  1  8  1  0  0  0
  8  9  2  0  0  0
 10 11  2  0  0  0
 12 13  1  0  0  0
 13 14  2  0  0  0
 14 15  1  0  0  0
 15 16  2  0  0  0
 16 17  1  0  0  0
 13 17  1  0  0  0
 17 18  1  0  0  0
M  END
>  <CHROM.1>
-22.34743358,-83.75374628,-3.10641908,178.82342120,-53.44983631,53.05961870
-21.50089511,2.58302074,-0.57275068,-0.07613407

>  <Name>
ligand

>  <RI>
80

>  <Rbt.Current_Directory>
/home/hitesit/Python_Packages/Docking_Pipelines/HandsFreeDocking/Prototypes

>  <Rbt.Executable>
rbdock/0.1.0

>  <Rbt.Library>
librxdock.so/0.1.0

>  <Rbt.Parameter_File>
/home/hitesit/Software/rxdock/rxdock_installation/data/scripts/dock.prm

>  <Rbt.Receptor>
probe.prmtop

>  <SCORE>
-13.191

>  <SCORE.INTER>
-10.3674

>  <SCORE.INTER.CONST>
1

>  <SCORE.INTER.POLAR>
-1.9799

>  <SCORE.INTER.REPUL>
0.261205

>  <SCORE.INTER.ROT>
4

>  <SCORE.INTER.VDW>
-14.3418

>  <SCORE.INTER.norm>
-0.609846

>  <SCORE.INTRA>
-2.82358

>  <SCORE.INTRA.DIHEDRAL>
-6.71502

>  <SCORE.INTRA.DIHEDRAL.0>
10.682

>  <SCORE.INTRA.POLAR>
0

>  <SCORE.INTRA.POLAR.0>
0

>  <SCORE.INTRA.REPUL>
0

>  <SCORE.INTRA.REPUL.0>
0

>  <SCORE.INTRA.VDW>
0.533933

>  <SCORE.INTRA.VDW.0>
-0.0324487

>  <SCORE.INTRA.norm>
-0.166093

>  <SCORE.RESTR>
0

>  <SCORE.RESTR.CAVITY>
0

>  <SCORE.RESTR.norm>
0

>  <SCORE.SYSTEM>
0

>  <SCORE.SYSTEM.CONST>
0

>  <SCORE.SYSTEM.DIHEDRAL>
0

>  <SCORE.SYSTEM.norm>
0

>  <SCORE.heavy>
17

>  <SCORE.norm>
-0.775939

$$$$
ligand
  RxDock  05162517583D
librxdock.so/0.1.0
 18 19  0  0  0  0  0  0  0  0999 V2000
  -55.5493   53.0111  -22.5450 C   0  0  0  0  0  0
  -55.2078   54.3226  -22.8843 C   0  0  0  0  0  0
  -54.2541   55.0345  -22.1418 C   0  0  0  0  0  0
  -53.6022   54.4679  -21.0357 C   0  0  0  0  0  0
  -53.9604   53.1404  -20.7316 C   0  0  0  0  0  0
  -54.9084   52.4106  -21.4619 C   0  0  0  0  0  0
  -57.2484   52.9553  -24.1353 O   0  5  0  0  0  0
  -56.5493   52.2733  -23.3265 C   0  0  0  0  0  0
  -56.6257   51.0260  -23.1142 O   0  0  0  0  0  0
  -53.9589   56.3864  -22.5719 C   0  0  0  0  0  0
  -53.0359   57.1727  -21.9999 C   0  0  0  0  0  0
  -53.2979   52.4810  -19.5765 C   0  0  0  0  0  0
  -53.9097   52.8714  -18.2969 C   0  0  0  0  0  0
  -53.3776   52.7476  -17.1032 N   0  0  0  0  0  0
  -54.3105   53.2406  -16.2261 N   0  0  0  0  0  0
  -55.3927   53.6621  -16.8663 N   0  0  0  0  0  0
  -55.1601   53.4223  -18.1751 N   0  0  0  0  0  0
  -55.8104   53.6195  -18.9492 H   0  0  0  0  0  0
  1  2  2  0  0  0
  2  3  1  0  0  0
  3  4  2  0  0  0
  3 10  1  0  0  0
  4  5  1  0  0  0
  5  6  2  0  0  0
  5 12  1  0  0  0
  1  6  1  0  0  0
  7  8  1  0  0  0
  1  8  1  0  0  0
  8  9  2  0  0  0
 10 11  2  0  0  0
 12 13  1  0  0  0
 13 14  2  0  0  0
 14 15  1  0  0  0
 15 16  2  0  0  0
 16 17  1  0  0  0
 13 17  1  0  0  0
 17 18  1  0  0  0
M  END
>  <CHROM.1>
-177.24051253,80.64412129,-12.90973894,-161.73309072,-54.76950117,53.53802429
-20.70798160,2.06196640,-0.96509794,-1.12973128

>  <Name>
ligand

>  <RI>
80

>  <Rbt.Current_Directory>
/home/hitesit/Python_Packages/Docking_Pipelines/HandsFreeDocking/Prototypes

>  <Rbt.Executable>
rbdock/0.1.0

>  <Rbt.Library>
librxdock.so/0.1.0

>  <Rbt.Parameter_File>
/home/hitesit/Software/rxdock/rxdock_installation/data/scripts/dock.prm

>  <Rbt.Receptor>
probe.prmtop

>  <SCORE>
-17.758

>  <SCORE.INTER>
-13.8562

>  <SCORE.INTER.CONST>
1

>  <SCORE.INTER.POLAR>
-1.74461

>  <SCORE.INTER.REPUL>
0.00112294

>  <SCORE.INTER.ROT>
4

>  <SCORE.INTER.VDW>
-17.3301

>  <SCORE.INTER.norm>
-0.81507

>  <SCORE.INTRA>
-3.90185

>  <SCORE.INTRA.DIHEDRAL>
-8.03514

>  <SCORE.INTRA.DIHEDRAL.0>
10.682

>  <SCORE.INTRA.POLAR>
0

>  <SCORE.INTRA.POLAR.0>
0

>  <SCORE.INTRA.REPUL>
0

>  <SCORE.INTRA.REPUL.0>
0

>  <SCORE.INTRA.VDW>
0.115721

>  <SCORE.INTRA.VDW.0>
-0.0324487

>  <SCORE.INTRA.norm>
-0.22952

>  <SCORE.RESTR>
0

>  <SCORE.RESTR.CAVITY>
0

>  <SCORE.RESTR.norm>
0

>  <SCORE.SYSTEM>
0

>  <SCORE.SYSTEM.CONST>
0

>  <SCORE.SYSTEM.DIHEDRAL>
0

>  <SCORE.SYSTEM.norm>
0

>  <SCORE.heavy>
17

>  <SCORE.norm>
-1.04459

$$$$
ligand
  RxDock  05162517583D
librxdock.so/0.1.0
 18 19  0  0  0  0  0  0  0  0999 V2000
  -53.8922   52.2469  -17.7408 C   0  0  0  0  0  0
  -54.2324   53.0898  -18.8017 C   0  0  0  0  0  0
  -53.4856   53.0918  -19.9891 C   0  0  0  0  0  0
  -52.3742   52.2537  -20.1671 C   0  0  0  0  0  0
  -52.0693   51.4077  -19.0833 C   0  0  0  0  0  0
  -52.8038   51.3881  -17.8897 C   0  0  0  0  0  0
  -54.9806   51.1179  -16.0204 O   0  5  0  0  0  0
  -54.6782   52.2517  -16.5010 C   0  0  0  0  0  0
  -54.9876   53.3877  -16.0314 O   0  0  0  0  0  0
  -53.9169   53.9942  -21.0376 C   0  0  0  0  0  0
  -54.9927   54.7894  -20.9498 C   0  0  0  0  0  0
  -50.9085   50.4893  -19.2139 C   0  0  0  0  0  0
  -49.8610   50.7847  -18.2242 C   0  0  0  0  0  0
  -49.8116   51.8215  -17.4204 N   0  0  0  0  0  0
  -48.6613   51.6709  -16.6878 N   0  0  0  0  0  0
  -48.0177   50.5633  -17.0308 N   0  0  0  0  0  0
  -48.7566   49.9994  -18.0110 N   0  0  0  0  0  0
  -48.5296   49.1288  -18.5124 H   0  0  0  0  0  0
  1  2  2  0  0  0
  2  3  1  0  0  0
  3  4  2  0  0  0
  3 10  1  0  0  0
  4  5  1  0  0  0
  5  6  2  0  0  0
  5 12  1  0  0  0
  1  6  1  0  0  0
  7  8  1  0  0  0
  1  8  1  0  0  0
  8  9  2  0  0  0
 10 11  2  0  0  0
 12 13  1  0  0  0
 13 14  2  0  0  0
 14 15  1  0  0  0
 15 16  2  0  0  0
 16 17  1  0  0  0
 13 17  1  0  0  0
 17 18  1  0  0  0
M  END
>  <CHROM.1>
-1.74760865,117.29682222,134.75963071,-8.80057552,-52.24984371,52.00328627
-18.22279486,2.82496617,0.34204689,-1.22796975

>  <Name>
ligand

>  <RI>
80

>  <Rbt.Current_Directory>
/home/hitesit/Python_Packages/Docking_Pipelines/HandsFreeDocking/Prototypes

>  <Rbt.Executable>
rbdock/0.1.0

>  <Rbt.Library>
librxdock.so/0.1.0

>  <Rbt.Parameter_File>
/home/hitesit/Software/rxdock/rxdock_installation/data/scripts/dock.prm

>  <Rbt.Receptor>
probe.prmtop

>  <SCORE>
-18.3095

>  <SCORE.INTER>
-17.7262

>  <SCORE.INTER.CONST>
1

>  <SCORE.INTER.POLAR>
-2.99679

>  <SCORE.INTER.REPUL>
0

>  <SCORE.INTER.ROT>
4

>  <SCORE.INTER.VDW>
-16.9372

>  <SCORE.INTER.norm>
-1.04272

>  <SCORE.INTRA>
-0.58324

>  <SCORE.INTRA.DIHEDRAL>
-2.30975

>  <SCORE.INTRA.DIHEDRAL.0>
10.682

>  <SCORE.INTRA.POLAR>
0

>  <SCORE.INTRA.POLAR.0>
0

>  <SCORE.INTRA.REPUL>
0

>  <SCORE.INTRA.REPUL.0>
0

>  <SCORE.INTRA.VDW>
0.571635

>  <SCORE.INTRA.VDW.0>
-0.0324487

>  <SCORE.INTRA.norm>
-0.0343082

>  <SCORE.RESTR>
0

>  <SCORE.RESTR.CAVITY>
0

>  <SCORE.RESTR.norm>
0

>  <SCORE.SYSTEM>
0

>  <SCORE.SYSTEM.CONST>
0

>  <SCORE.SYSTEM.DIHEDRAL>
0

>  <SCORE.SYSTEM.norm>
0

>  <SCORE.heavy>
17

>  <SCORE.norm>
-1.07703

$$$$
