ligand
  PyMOL3.1          3D                             0

 18 19  0  0  0  0  0  0  0  0999 V2000
  -54.1822   52.2367  -17.4259 C   0  0  0  0  0  0  0  0  0  0  0  0
  -54.3038   52.8172  -18.6908 C   0  0  0  0  0  0  0  0  0  0  0  0
  -53.3920   52.5157  -19.7132 C   0  0  0  0  0  0  0  0  0  0  0  0
  -52.3267   51.6235  -19.5169 C   0  0  0  0  0  0  0  0  0  0  0  0
  -52.2435   51.0466  -18.2349 C   0  0  0  0  0  0  0  0  0  0  0  0
  -53.1453   51.3320  -17.2006 C   0  0  0  0  0  0  0  0  0  0  0  0
  -54.8789   52.0967  -15.2091 O   0  5  0  0  0  0  0  0  0  0  0  0
  -55.1400   52.5584  -16.3609 C   0  0  0  0  0  0  0  0  0  0  0  0
  -56.1416   53.2604  -16.6936 O   0  0  0  0  0  0  0  0  0  0  0  0
  -53.6013   53.1599  -20.9942 C   0  0  0  0  0  0  0  0  0  0  0  0
  -53.7097   54.4858  -21.1602 C   0  0  0  0  0  0  0  0  0  0  0  0
  -51.1420   50.0859  -17.9670 C   0  0  0  0  0  0  0  0  0  0  0  0
  -50.0851   50.6811  -17.1347 C   0  0  0  0  0  0  0  0  0  0  0  0
  -50.0542   51.9063  -16.6642 N   0  0  0  0  0  0  0  0  0  0  0  0
  -48.8849   52.0032  -15.9529 N   0  0  0  0  0  0  0  0  0  0  0  0
  -48.2117   50.8610  -15.9820 N   0  0  0  0  0  0  0  0  0  0  0  0
  -48.9510   50.0197  -16.7371 N   0  0  0  0  0  0  0  0  0  0  0  0
  -48.7052   49.0478  -16.9738 H   0  0  0  0  0  0  0  0  0  0  0  0
  1  2  2  0  0  0  0
  2  3  1  0  0  0  0
  3  4  2  0  0  0  0
  3 10  1  0  0  0  0
  4  5  1  0  0  0  0
  5  6  2  0  0  0  0
  5 12  1  0  0  0  0
  1  6  1  0  0  0  0
  7  8  1  0  0  0  0
  1  8  1  0  0  0  0
  8  9  2  0  0  0  0
 10 11  2  0  0  0  0
 12 13  1  0  0  0  0
 13 14  2  0  0  0  0
 14 15  1  0  0  0  0
 15 16  2  0  0  0  0
 16 17  1  0  0  0  0
 13 17  1  0  0  0  0
 17 18  1  0  0  0  0
M  END
$$$$
