Apigenin_1
  PyMOL3.1          3D                             0

 20 22  0  0  0  0  0  0  0  0999 V2000
  -50.6200   52.6531  -10.0709 O   0  0  0  0  0  0  0  0  0  0  0  0
  -49.9865   52.1283  -11.0053 C   0  0  0  0  0  0  0  0  0  0  0  0
  -50.5251   52.1331  -12.3345 C   0  0  0  0  0  0  0  0  0  0  0  0
  -49.8448   51.6121  -13.3913 C   0  0  0  0  0  0  0  0  0  0  0  0
  -50.3233   51.6307  -14.7700 C   0  0  0  0  0  0  0  0  0  0  0  0
  -49.4365   51.4365  -15.8412 C   0  0  0  0  0  0  0  0  0  0  0  0
  -49.8954   51.5054  -17.1511 C   0  0  0  0  0  0  0  0  0  0  0  0
  -51.2466   51.7640  -17.3960 C   0  0  0  0  0  0  0  0  0  0  0  0
  -51.6932   51.8750  -18.6891 O   0  0  0  0  0  0  0  0  0  0  0  0
  -52.1472   51.9354  -16.3440 C   0  0  0  0  0  0  0  0  0  0  0  0
  -51.6808   51.8699  -15.0373 C   0  0  0  0  0  0  0  0  0  0  0  0
  -48.5940   51.0175  -13.2050 O   0  0  0  0  0  0  0  0  0  0  0  0
  -48.0169   50.9765  -11.9253 C   0  0  0  0  0  0  0  0  0  0  0  0
  -46.7509   50.4058  -11.8107 C   0  0  0  0  0  0  0  0  0  0  0  0
  -46.1258   50.3966  -10.5657 C   0  0  0  0  0  0  0  0  0  0  0  0
  -44.8755   49.8463  -10.4480 O   0  0  0  0  0  0  0  0  0  0  0  0
  -46.7457   50.9427   -9.4375 C   0  0  0  0  0  0  0  0  0  0  0  0
  -48.0132   51.5035   -9.5670 C   0  0  0  0  0  0  0  0  0  0  0  0
  -48.5882   52.0343   -8.4393 O   0  0  0  0  0  0  0  0  0  0  0  0
  -48.6801   51.5312  -10.8139 C   0  0  0  0  0  0  0  0  0  0  0  0
  1  2  2  0  0  0  0
  2  3  1  0  0  0  0
  3  4  2  0  0  0  0
  4  5  1  0  0  0  0
  5  6  2  0  0  0  0
  6  7  1  0  0  0  0
  7  8  2  0  0  0  0
  8  9  1  0  0  0  0
  8 10  1  0  0  0  0
 10 11  2  0  0  0  0
  4 12  1  0  0  0  0
 12 13  1  0  0  0  0
 13 14  2  0  0  0  0
 14 15  1  0  0  0  0
 15 16  1  0  0  0  0
 15 17  2  0  0  0  0
 17 18  1  0  0  0  0
 18 19  1  0  0  0  0
 18 20  2  0  0  0  0
  2 20  1  0  0  0  0
  5 11  1  0  0  0  0
 13 20  1  0  0  0  0
M  END
$$$$
