@<TRIPOS>MOLECULE
6-methylflavone_Iso0_entry_00001_conf_01
30 32 1
SMALL
NO_CHARGES


@<TRIPOS>ATOM
      1 C         -55.2006   52.8920  -23.0083 C.3       1 UNL1       -0.0397
      2 C         -54.5199   52.6831  -21.6875 C.ar      1 UNL1       -0.0495
      3 C         -55.1765   53.0035  -20.4907 C.ar      1 UNL1       -0.0553
      4 C         -54.5568   52.7807  -19.2579 C.ar      1 UNL1       -0.0184
      5 C         -53.2795   52.2252  -19.2124 C.ar      1 UNL1        0.1393
      6 O         -52.7236   52.0310  -17.9734 O.2       1 UNL1       -0.4546
      7 C         -51.4598   51.4649  -17.8993 C.ar      1 UNL1        0.1392
      8 C         -50.9502   51.3035  -16.5237 C.ar      1 UNL1        0.0174
      9 C         -49.6048   50.9939  -16.2705 C.ar      1 UNL1       -0.0511
     10 C         -49.1432   50.8356  -14.9608 C.ar      1 UNL1       -0.0611
     11 C         -50.0208   50.9794  -13.8887 C.ar      1 UNL1       -0.0617
     12 C         -51.3609   51.2770  -14.1239 C.ar      1 UNL1       -0.0611
     13 C         -51.8231   51.4347  -15.4331 C.ar      1 UNL1       -0.0511
     14 C         -50.7295   51.1082  -18.9662 C.ar      1 UNL1        0.0287
     15 C         -51.2841   51.3002  -20.3159 C.ar      1 UNL1        0.1931
     16 O         -50.6475   50.9782  -21.3103 O.2       1 UNL1       -0.2870
     17 C         -52.6278   51.8913  -20.3953 C.ar      1 UNL1        0.0642
     18 C         -53.2418   52.1119  -21.6327 C.ar      1 UNL1       -0.0445
     19 H         -55.7676   51.9971  -23.2823 H         1 UNL1        0.0278
     20 H         -54.4690   53.1032  -23.7953 H         1 UNL1        0.0278
     21 H         -55.8852   53.7455  -22.9640 H         1 UNL1        0.0278
     22 H         -56.1776   53.4304  -20.5121 H         1 UNL1        0.0621
     23 H         -55.0733   53.0369  -18.3365 H         1 UNL1        0.0654
     24 H         -48.9020   50.8591  -17.0896 H         1 UNL1        0.0625
     25 H         -48.0985   50.5954  -14.7792 H         1 UNL1        0.0618
     26 H         -49.6613   50.8553  -12.8704 H         1 UNL1        0.0618
     27 H         -52.0486   51.3863  -13.2892 H         1 UNL1        0.0618
     28 H         -52.8734   51.6686  -15.5947 H         1 UNL1        0.0625
     29 H         -49.7340   50.6884  -18.9070 H         1 UNL1        0.0693
     30 H         -52.7210   51.8383  -22.5486 H         1 UNL1        0.0628
@<TRIPOS>BOND
     1    1    2 1
     2    2    3 ar
     3    3    4 ar
     4    4    5 ar
     5    5    6 ar
     6    6    7 ar
     7    7    8 1
     8    8    9 ar
     9    9   10 ar
    10   10   11 ar
    11   11   12 ar
    12   12   13 ar
    13    7   14 ar
    14   14   15 ar
    15   15   16 2
    16   15   17 ar
    17   17   18 ar
    18   18    2 ar
    19   17    5 ar
    20   13    8 ar
    21    1   19 1
    22    1   20 1
    23    1   21 1
    24    3   22 1
    25    4   23 1
    26    9   24 1
    27   10   25 1
    28   11   26 1
    29   12   27 1
    30   13   28 1
    31   14   29 1
    32   18   30 1
@<TRIPOS>SUBSTRUCTURE
1 UNL1 1
@<TRIPOS>COMMENT
6-methylflavone_Iso0
PLANTSmolcadARTstart hb
PLANTSmolcadARTstart HB
LINES
PLANTSmolcadARTstart HBCH
LINES
PLANTSmolcadARTstart HB-CHO
LINES
PLANTSmolcadARTend
PLANTSmolcadARTstart HB_WATER
LINES
PLANTSmolcadARTend

PLANTSmolcadARTend

@<TRIPOS>MOLECULE
6-methylflavone_Iso0_entry_00001_conf_02
30 32 1
SMALL
NO_CHARGES


@<TRIPOS>ATOM
      1 C         -55.1880   52.9668  -23.0124 C.3       1 UNL1       -0.0397
      2 C         -54.5203   52.7433  -21.6874 C.ar      1 UNL1       -0.0495
      3 C         -55.1812   53.0684  -20.4944 C.ar      1 UNL1       -0.0553
      4 C         -54.5741   52.8322  -19.2578 C.ar      1 UNL1       -0.0184
      5 C         -53.3052   52.2584  -19.2049 C.ar      1 UNL1        0.1393
      6 O         -52.7615   52.0516  -17.9625 O.2       1 UNL1       -0.4546
      7 C         -51.5064   51.4674  -17.8812 C.ar      1 UNL1        0.1392
      8 C         -51.0095   51.2935  -16.5025 C.ar      1 UNL1        0.0174
      9 C         -51.8572   51.4360  -15.3929 C.ar      1 UNL1       -0.0511
     10 C         -51.3657   51.2768  -14.0942 C.ar      1 UNL1       -0.0611
     11 C         -50.0208   50.9787  -13.8881 C.ar      1 UNL1       -0.0617
     12 C         -49.1648   50.8436  -14.9783 C.ar      1 UNL1       -0.0611
     13 C         -49.6555   51.0034  -16.2769 C.ar      1 UNL1       -0.0511
     14 C         -50.7733   51.1043  -18.9440 C.ar      1 UNL1        0.0287
     15 C         -51.3149   51.3093  -20.2970 C.ar      1 UNL1        0.1931
     16 O         -50.6754   50.9820  -21.2880 O.2       1 UNL1       -0.2870
     17 C         -52.6494   51.9198  -20.3842 C.ar      1 UNL1        0.0642
     18 C         -53.2509   52.1538  -21.6253 C.ar      1 UNL1       -0.0445
     19 H         -55.7656   52.0811  -23.2942 H         1 UNL1        0.0278
     20 H         -54.4475   53.1706  -23.7931 H         1 UNL1        0.0278
     21 H         -55.8607   53.8298  -22.9700 H         1 UNL1        0.0278
     22 H         -56.1760   53.5097  -20.5216 H         1 UNL1        0.0621
     23 H         -55.0938   53.0923  -18.3393 H         1 UNL1        0.0654
     24 H         -52.9077   51.6856  -15.5246 H         1 UNL1        0.0625
     25 H         -52.0335   51.3905  -13.2439 H         1 UNL1        0.0618
     26 H         -49.6390   50.8558  -12.8778 H         1 UNL1        0.0618
     27 H         -48.1141   50.6145  -14.8201 H         1 UNL1        0.0618
     28 H         -48.9702   50.8921  -17.1147 H         1 UNL1        0.0625
     29 H         -49.7843   50.6701  -18.8790 H         1 UNL1        0.0693
     30 H         -52.7271   51.8763  -22.5384 H         1 UNL1        0.0628
@<TRIPOS>BOND
     1    1    2 1
     2    2    3 ar
     3    3    4 ar
     4    4    5 ar
     5    5    6 ar
     6    6    7 ar
     7    7    8 1
     8    8    9 ar
     9    9   10 ar
    10   10   11 ar
    11   11   12 ar
    12   12   13 ar
    13    7   14 ar
    14   14   15 ar
    15   15   16 2
    16   15   17 ar
    17   17   18 ar
    18   18    2 ar
    19   17    5 ar
    20   13    8 ar
    21    1   19 1
    22    1   20 1
    23    1   21 1
    24    3   22 1
    25    4   23 1
    26    9   24 1
    27   10   25 1
    28   11   26 1
    29   12   27 1
    30   13   28 1
    31   14   29 1
    32   18   30 1
@<TRIPOS>SUBSTRUCTURE
1 UNL1 1
@<TRIPOS>COMMENT
6-methylflavone_Iso0
PLANTSmolcadARTstart hb
PLANTSmolcadARTstart HB
LINES
PLANTSmolcadARTstart HBCH
LINES
PLANTSmolcadARTstart HB-CHO
LINES
PLANTSmolcadARTend
PLANTSmolcadARTstart HB_WATER
LINES
PLANTSmolcadARTend

PLANTSmolcadARTend

@<TRIPOS>MOLECULE
6-methylflavone_Iso0_entry_00001_conf_03
30 32 1
SMALL
NO_CHARGES


@<TRIPOS>ATOM
      1 C         -56.2144   52.7360  -22.3948 C.3       1 UNL1       -0.0397
      2 C         -55.1211   52.5288  -21.3882 C.ar      1 UNL1       -0.0495
      3 C         -53.8122   52.2511  -21.8073 C.ar      1 UNL1       -0.0553
      4 C         -52.7856   52.0887  -20.8728 C.ar      1 UNL1       -0.0184
      5 C         -53.0584   52.2138  -19.5119 C.ar      1 UNL1        0.1393
      6 O         -52.0102   52.0432  -18.6436 O.2       1 UNL1       -0.4546
      7 C         -52.2513   52.1782  -17.2846 C.ar      1 UNL1        0.1392
      8 C         -51.0613   51.9706  -16.4368 C.ar      1 UNL1        0.0174
      9 C         -49.9885   51.1706  -16.8600 C.ar      1 UNL1       -0.0511
     10 C         -48.8741   50.9783  -16.0387 C.ar      1 UNL1       -0.0611
     11 C         -48.8203   51.5783  -14.7827 C.ar      1 UNL1       -0.0617
     12 C         -49.8810   52.3671  -14.3444 C.ar      1 UNL1       -0.0611
     13 C         -50.9957   52.5591  -15.1649 C.ar      1 UNL1       -0.0511
     14 C         -53.4536   52.4482  -16.7552 C.ar      1 UNL1        0.0287
     15 C         -54.6082   52.6370  -17.6480 C.ar      1 UNL1        0.1931
     16 O         -55.7175   52.8924  -17.1982 O.2       1 UNL1       -0.2870
     17 C         -54.3519   52.5036  -19.0894 C.ar      1 UNL1        0.0642
     18 C         -55.3843   52.6670  -20.0192 C.ar      1 UNL1       -0.0445
     19 H         -56.2665   53.7916  -22.6784 H         1 UNL1        0.0278
     20 H         -57.1836   52.4301  -21.9868 H         1 UNL1        0.0278
     21 H         -56.0366   52.1359  -23.2934 H         1 UNL1        0.0278
     22 H         -53.5841   52.1589  -22.8677 H         1 UNL1        0.0621
     23 H         -51.7755   51.8693  -21.2087 H         1 UNL1        0.0654
     24 H         -50.0121   50.6764  -17.8287 H         1 UNL1        0.0625
     25 H         -48.0503   50.3558  -16.3790 H         1 UNL1        0.0618
     26 H         -47.9537   51.4277  -14.1441 H         1 UNL1        0.0618
     27 H         -49.8431   52.8336  -13.3633 H         1 UNL1        0.0618
     28 H         -51.8129   53.1804  -14.8039 H         1 UNL1        0.0625
     29 H         -53.6442   52.5300  -15.6932 H         1 UNL1        0.0693
     30 H         -56.3893   52.9007  -19.6722 H         1 UNL1        0.0628
@<TRIPOS>BOND
     1    1    2 1
     2    2    3 ar
     3    3    4 ar
     4    4    5 ar
     5    5    6 ar
     6    6    7 ar
     7    7    8 1
     8    8    9 ar
     9    9   10 ar
    10   10   11 ar
    11   11   12 ar
    12   12   13 ar
    13    7   14 ar
    14   14   15 ar
    15   15   16 2
    16   15   17 ar
    17   17   18 ar
    18   18    2 ar
    19   17    5 ar
    20   13    8 ar
    21    1   19 1
    22    1   20 1
    23    1   21 1
    24    3   22 1
    25    4   23 1
    26    9   24 1
    27   10   25 1
    28   11   26 1
    29   12   27 1
    30   13   28 1
    31   14   29 1
    32   18   30 1
@<TRIPOS>SUBSTRUCTURE
1 UNL1 1
@<TRIPOS>COMMENT
6-methylflavone_Iso0
PLANTSmolcadARTstart hb
PLANTSmolcadARTstart HB
LINES
PLANTSmolcadARTstart HBCH
LINES
PLANTSmolcadARTstart HB-CHO
LINES
PLANTSmolcadARTend
PLANTSmolcadARTstart HB_WATER
LINES
PLANTSmolcadARTend

PLANTSmolcadARTend

@<TRIPOS>MOLECULE
6-methylflavone_Iso0_entry_00001_conf_04
30 32 1
SMALL
NO_CHARGES


@<TRIPOS>ATOM
      1 C         -56.0407   52.4566  -22.5013 C.3       1 UNL1       -0.0397
      2 C         -55.0550   52.2888  -21.3825 C.ar      1 UNL1       -0.0495
      3 C         -53.6941   52.0928  -21.6574 C.ar      1 UNL1       -0.0553
      4 C         -52.7693   51.9676  -20.6170 C.ar      1 UNL1       -0.0184
      5 C         -53.1972   52.0486  -19.2932 C.ar      1 UNL1        0.1393
      6 O         -52.2430   51.9177  -18.3163 O.2       1 UNL1       -0.4546
      7 C         -52.6399   52.0104  -16.9907 C.ar      1 UNL1        0.1392
      8 C         -51.5407   51.8509  -16.0189 C.ar      1 UNL1        0.0174
      9 C         -51.7847   51.4716  -14.6898 C.ar      1 UNL1       -0.0511
     10 C         -50.7311   51.3350  -13.7816 C.ar      1 UNL1       -0.0611
     11 C         -49.4219   51.5809  -14.1886 C.ar      1 UNL1       -0.0617
     12 C         -49.1643   51.9675  -15.5016 C.ar      1 UNL1       -0.0611
     13 C         -50.2174   52.1048  -16.4098 C.ar      1 UNL1       -0.0511
     14 C         -53.9066   52.2024  -16.5944 C.ar      1 UNL1        0.0287
     15 C         -54.9647   52.3459  -17.6072 C.ar      1 UNL1        0.1931
     16 O         -56.1296   52.5301  -17.2799 O.2       1 UNL1       -0.2870
     17 C         -54.5438   52.2575  -19.0130 C.ar      1 UNL1        0.0642
     18 C         -55.4750   52.3833  -20.0493 C.ar      1 UNL1       -0.0445
     19 H         -56.1215   53.5135  -22.7731 H         1 UNL1        0.0278
     20 H         -57.0298   52.0890  -22.2083 H         1 UNL1        0.0278
     21 H         -55.7309   51.8864  -23.3834 H         1 UNL1        0.0278
     22 H         -53.3456   52.0358  -22.6871 H         1 UNL1        0.0621
     23 H         -51.7173   51.8115  -20.8416 H         1 UNL1        0.0654
     24 H         -52.7989   51.2902  -14.3409 H         1 UNL1        0.0625
     25 H         -50.9346   51.0409  -12.7550 H         1 UNL1        0.0618
     26 H         -48.6030   51.4753  -13.4817 H         1 UNL1        0.0618
     27 H         -48.1438   52.1634  -15.8209 H         1 UNL1        0.0618
     28 H         -49.9941   52.4063  -17.4312 H         1 UNL1        0.0625
     29 H         -54.2176   52.2509  -15.5591 H         1 UNL1        0.0693
     30 H         -56.5239   52.5537  -19.8130 H         1 UNL1        0.0628
@<TRIPOS>BOND
     1    1    2 1
     2    2    3 ar
     3    3    4 ar
     4    4    5 ar
     5    5    6 ar
     6    6    7 ar
     7    7    8 1
     8    8    9 ar
     9    9   10 ar
    10   10   11 ar
    11   11   12 ar
    12   12   13 ar
    13    7   14 ar
    14   14   15 ar
    15   15   16 2
    16   15   17 ar
    17   17   18 ar
    18   18    2 ar
    19   17    5 ar
    20   13    8 ar
    21    1   19 1
    22    1   20 1
    23    1   21 1
    24    3   22 1
    25    4   23 1
    26    9   24 1
    27   10   25 1
    28   11   26 1
    29   12   27 1
    30   13   28 1
    31   14   29 1
    32   18   30 1
@<TRIPOS>SUBSTRUCTURE
1 UNL1 1
@<TRIPOS>COMMENT
6-methylflavone_Iso0
PLANTSmolcadARTstart hb
PLANTSmolcadARTstart HB
LINES
PLANTSmolcadARTstart HBCH
LINES
PLANTSmolcadARTstart HB-CHO
LINES
PLANTSmolcadARTend
PLANTSmolcadARTstart HB_WATER
LINES
PLANTSmolcadARTend

PLANTSmolcadARTend

@<TRIPOS>MOLECULE
6-methylflavone_Iso0_entry_00001_conf_05
30 32 1
SMALL
NO_CHARGES


@<TRIPOS>ATOM
      1 C         -56.7473   52.5430  -21.8756 C.3       1 UNL1       -0.0397
      2 C         -55.7185   52.4587  -20.7866 C.ar      1 UNL1       -0.0495
      3 C         -56.0743   52.6998  -19.4521 C.ar      1 UNL1       -0.0553
      4 C         -55.1248   52.5912  -18.4321 C.ar      1 UNL1       -0.0184
      5 C         -53.8142   52.2298  -18.7383 C.ar      1 UNL1        0.1393
      6 O         -52.9280   52.1403  -17.6950 O.2       1 UNL1       -0.4546
      7 C         -51.6211   51.7669  -17.9704 C.ar      1 UNL1        0.1392
      8 C         -50.7477   51.7053  -16.7823 C.ar      1 UNL1        0.0174
      9 C         -49.5359   50.9974  -16.7975 C.ar      1 UNL1       -0.0511
     10 C         -48.7268   50.9429  -15.6592 C.ar      1 UNL1       -0.0611
     11 C         -49.1210   51.5902  -14.4905 C.ar      1 UNL1       -0.0617
     12 C         -50.3253   52.2887  -14.4565 C.ar      1 UNL1       -0.0611
     13 C         -51.1350   52.3430  -15.5941 C.ar      1 UNL1       -0.0511
     14 C         -51.1554   51.5029  -19.2000 C.ar      1 UNL1        0.0287
     15 C         -52.0693   51.5885  -20.3505 C.ar      1 UNL1        0.1931
     16 O         -51.6787   51.3464  -21.4849 O.2       1 UNL1       -0.2870
     17 C         -53.4573   51.9749  -20.0586 C.ar      1 UNL1        0.0642
     18 C         -54.4023   52.0820  -21.0845 C.ar      1 UNL1       -0.0445
     19 H         -57.2299   51.5701  -22.0101 H         1 UNL1        0.0278
     20 H         -56.2891   52.8457  -22.8230 H         1 UNL1        0.0278
     21 H         -57.5127   53.2877  -21.6327 H         1 UNL1        0.0278
     22 H         -57.0965   52.9750  -19.1985 H         1 UNL1        0.0621
     23 H         -55.4106   52.7847  -17.4015 H         1 UNL1        0.0654
     24 H         -49.2124   50.4686  -17.6914 H         1 UNL1        0.0625
     25 H         -47.7908   50.3905  -15.6850 H         1 UNL1        0.0618
     26 H         -48.4917   51.5467  -13.6052 H         1 UNL1        0.0618
     27 H         -50.6370   52.7919  -13.5447 H         1 UNL1        0.0618
     28 H         -52.0712   52.8955  -15.5466 H         1 UNL1        0.0625
     29 H         -50.1295   51.2345  -19.4155 H         1 UNL1        0.0693
     30 H         -54.1084   51.8722  -22.1115 H         1 UNL1        0.0628
@<TRIPOS>BOND
     1    1    2 1
     2    2    3 ar
     3    3    4 ar
     4    4    5 ar
     5    5    6 ar
     6    6    7 ar
     7    7    8 1
     8    8    9 ar
     9    9   10 ar
    10   10   11 ar
    11   11   12 ar
    12   12   13 ar
    13    7   14 ar
    14   14   15 ar
    15   15   16 2
    16   15   17 ar
    17   17   18 ar
    18   18    2 ar
    19   17    5 ar
    20   13    8 ar
    21    1   19 1
    22    1   20 1
    23    1   21 1
    24    3   22 1
    25    4   23 1
    26    9   24 1
    27   10   25 1
    28   11   26 1
    29   12   27 1
    30   13   28 1
    31   14   29 1
    32   18   30 1
@<TRIPOS>SUBSTRUCTURE
1 UNL1 1
@<TRIPOS>COMMENT
6-methylflavone_Iso0
PLANTSmolcadARTstart hb
PLANTSmolcadARTstart HB
LINES
PLANTSmolcadARTstart HBCH
LINES
PLANTSmolcadARTstart HB-CHO
LINES
PLANTSmolcadARTend
PLANTSmolcadARTstart HB_WATER
LINES
PLANTSmolcadARTend

PLANTSmolcadARTend

@<TRIPOS>MOLECULE
6-methylflavone_Iso0_entry_00001_conf_06
30 32 1
SMALL
NO_CHARGES


@<TRIPOS>ATOM
      1 C         -56.8137   52.8449  -21.7850 C.3       1 UNL1       -0.0397
      2 C         -55.7178   52.6399  -20.7809 C.ar      1 UNL1       -0.0495
      3 C         -54.3828   52.5357  -21.1968 C.ar      1 UNL1       -0.0553
      4 C         -53.3568   52.3761  -20.2611 C.ar      1 UNL1       -0.0184
      5 C         -53.6574   52.3307  -18.9011 C.ar      1 UNL1        0.1393
      6 O         -52.6082   52.1720  -18.0317 O.2       1 UNL1       -0.4546
      7 C         -52.8782   52.1396  -16.6718 C.ar      1 UNL1        0.1392
      8 C         -51.6840   51.9602  -15.8233 C.ar      1 UNL1        0.0174
      9 C         -50.4203   52.4178  -16.2277 C.ar      1 UNL1       -0.0511
     10 C         -49.2993   52.2301  -15.4143 C.ar      1 UNL1       -0.0611
     11 C         -49.4262   51.5783  -14.1898 C.ar      1 UNL1       -0.0617
     12 C         -50.6717   51.1098  -13.7787 C.ar      1 UNL1       -0.0611
     13 C         -51.7926   51.2966  -14.5919 C.ar      1 UNL1       -0.0511
     14 C         -54.1076   52.2351  -16.1445 C.ar      1 UNL1        0.0287
     15 C         -55.2642   52.4040  -17.0389 C.ar      1 UNL1        0.1931
     16 O         -56.3986   52.5022  -16.5902 O.2       1 UNL1       -0.2870
     17 C         -54.9782   52.4481  -18.4802 C.ar      1 UNL1        0.0642
     18 C         -56.0102   52.6076  -19.4111 C.ar      1 UNL1       -0.0445
     19 H         -56.9661   53.9145  -21.9592 H         1 UNL1        0.0278
     20 H         -57.7530   52.4056  -21.4328 H         1 UNL1        0.0278
     21 H         -56.5666   52.3626  -22.7366 H         1 UNL1        0.0278
     22 H         -54.1338   52.5777  -22.2556 H         1 UNL1        0.0621
     23 H         -52.3259   52.2919  -20.5950 H         1 UNL1        0.0654
     24 H         -50.2898   52.9146  -17.1865 H         1 UNL1        0.0625
     25 H         -48.3264   52.5894  -15.7402 H         1 UNL1        0.0618
     26 H         -48.5539   51.4319  -13.5580 H         1 UNL1        0.0618
     27 H         -50.7728   50.5977  -12.8252 H         1 UNL1        0.0618
     28 H         -52.7566   50.9243  -14.2513 H         1 UNL1        0.0625
     29 H         -54.3185   52.1860  -15.0843 H         1 UNL1        0.0693
     30 H         -57.0376   52.7052  -19.0647 H         1 UNL1        0.0628
@<TRIPOS>BOND
     1    1    2 1
     2    2    3 ar
     3    3    4 ar
     4    4    5 ar
     5    5    6 ar
     6    6    7 ar
     7    7    8 1
     8    8    9 ar
     9    9   10 ar
    10   10   11 ar
    11   11   12 ar
    12   12   13 ar
    13    7   14 ar
    14   14   15 ar
    15   15   16 2
    16   15   17 ar
    17   17   18 ar
    18   18    2 ar
    19   17    5 ar
    20   13    8 ar
    21    1   19 1
    22    1   20 1
    23    1   21 1
    24    3   22 1
    25    4   23 1
    26    9   24 1
    27   10   25 1
    28   11   26 1
    29   12   27 1
    30   13   28 1
    31   14   29 1
    32   18   30 1
@<TRIPOS>SUBSTRUCTURE
1 UNL1 1
@<TRIPOS>COMMENT
6-methylflavone_Iso0
PLANTSmolcadARTstart hb
PLANTSmolcadARTstart HB
LINES
PLANTSmolcadARTstart HBCH
LINES
PLANTSmolcadARTstart HB-CHO
LINES
PLANTSmolcadARTend
PLANTSmolcadARTstart HB_WATER
LINES
PLANTSmolcadARTend

PLANTSmolcadARTend

@<TRIPOS>MOLECULE
6-methylflavone_Iso0_entry_00001_conf_07
30 32 1
SMALL
NO_CHARGES


@<TRIPOS>ATOM
      1 C         -55.9620   51.9440  -22.6184 C.3       1 UNL1       -0.0397
      2 C         -55.1034   51.9487  -21.3879 C.ar      1 UNL1       -0.0495
      3 C         -55.6619   52.2264  -20.1322 C.ar      1 UNL1       -0.0553
      4 C         -54.8706   52.2007  -18.9804 C.ar      1 UNL1       -0.0184
      5 C         -53.5162   51.8862  -19.0746 C.ar      1 UNL1        0.1393
      6 O         -52.7916   51.8776  -17.9098 O.2       1 UNL1       -0.4546
      7 C         -51.4451   51.5521  -17.9736 C.ar      1 UNL1        0.1392
      8 C         -50.7556   51.5767  -16.6689 C.ar      1 UNL1        0.0174
      9 C         -50.1842   52.7542  -16.1622 C.ar      1 UNL1       -0.0511
     10 C         -49.5269   52.7553  -14.9287 C.ar      1 UNL1       -0.0611
     11 C         -49.4279   51.5791  -14.1892 C.ar      1 UNL1       -0.0617
     12 C         -49.9813   50.4002  -14.6828 C.ar      1 UNL1       -0.0611
     13 C         -50.6379   50.3985  -15.9163 C.ar      1 UNL1       -0.0511
     14 C         -50.7926   51.2606  -19.1084 C.ar      1 UNL1        0.0287
     15 C         -51.5285   51.2599  -20.3830 C.ar      1 UNL1        0.1931
     16 O         -50.9652   50.9906  -21.4357 O.2       1 UNL1       -0.2870
     17 C         -52.9582   51.5953  -20.3154 C.ar      1 UNL1        0.0642
     18 C         -53.7442   51.6195  -21.4724 C.ar      1 UNL1       -0.0445
     19 H         -56.3818   50.9460  -22.7776 H         1 UNL1        0.0278
     20 H         -55.3804   52.2290  -23.5014 H         1 UNL1        0.0278
     21 H         -56.7828   52.6628  -22.5246 H         1 UNL1        0.0278
     22 H         -56.7202   52.4656  -20.0439 H         1 UNL1        0.0621
     23 H         -55.3131   52.4219  -18.0127 H         1 UNL1        0.0654
     24 H         -50.2319   53.6827  -16.7269 H         1 UNL1        0.0625
     25 H         -49.0885   53.6746  -14.5485 H         1 UNL1        0.0618
     26 H         -48.9159   51.5803  -13.2303 H         1 UNL1        0.0618
     27 H         -49.9024   49.4802  -14.1092 H         1 UNL1        0.0618
     28 H         -51.0646   49.4671  -16.2828 H         1 UNL1        0.0625
     29 H         -49.7366   51.0299  -19.1589 H         1 UNL1        0.0693
     30 H         -53.2936   51.3825  -22.4346 H         1 UNL1        0.0628
@<TRIPOS>BOND
     1    1    2 1
     2    2    3 ar
     3    3    4 ar
     4    4    5 ar
     5    5    6 ar
     6    6    7 ar
     7    7    8 1
     8    8    9 ar
     9    9   10 ar
    10   10   11 ar
    11   11   12 ar
    12   12   13 ar
    13    7   14 ar
    14   14   15 ar
    15   15   16 2
    16   15   17 ar
    17   17   18 ar
    18   18    2 ar
    19   17    5 ar
    20   13    8 ar
    21    1   19 1
    22    1   20 1
    23    1   21 1
    24    3   22 1
    25    4   23 1
    26    9   24 1
    27   10   25 1
    28   11   26 1
    29   12   27 1
    30   13   28 1
    31   14   29 1
    32   18   30 1
@<TRIPOS>SUBSTRUCTURE
1 UNL1 1
@<TRIPOS>COMMENT
6-methylflavone_Iso0
PLANTSmolcadARTstart hb
PLANTSmolcadARTstart HB
LINES
PLANTSmolcadARTstart HBCH
LINES
PLANTSmolcadARTstart HB-CHO
LINES
PLANTSmolcadARTend
PLANTSmolcadARTstart HB_WATER
LINES
PLANTSmolcadARTend

PLANTSmolcadARTend

@<TRIPOS>MOLECULE
6-methylflavone_Iso0_entry_00001_conf_08
30 32 1
SMALL
NO_CHARGES


@<TRIPOS>ATOM
      1 C         -49.0512   50.4049  -12.9239 C.3       1 UNL1       -0.0397
      2 C         -49.7455   50.8172  -14.1886 C.ar      1 UNL1       -0.0495
      3 C         -49.0032   51.1710  -15.3242 C.ar      1 UNL1       -0.0553
      4 C         -49.6474   51.5252  -16.5130 C.ar      1 UNL1       -0.0184
      5 C         -51.0395   51.5176  -16.5780 C.ar      1 UNL1        0.1393
      6 O         -51.6138   51.8751  -17.7714 O.2       1 UNL1       -0.4546
      7 C         -52.9971   51.8605  -17.8678 C.ar      1 UNL1        0.1392
      8 C         -53.5146   52.2657  -19.1892 C.ar      1 UNL1        0.0174
      9 C         -52.8172   51.9745  -20.3719 C.ar      1 UNL1       -0.0511
     10 C         -53.3189   52.3751  -21.6134 C.ar      1 UNL1       -0.0611
     11 C         -54.5203   53.0759  -21.6880 C.ar      1 UNL1       -0.0617
     12 C         -55.2194   53.3810  -20.5227 C.ar      1 UNL1       -0.0611
     13 C         -54.7179   52.9814  -19.2812 C.ar      1 UNL1       -0.0511
     14 C         -53.8200   51.5357  -16.8597 C.ar      1 UNL1        0.0287
     15 C         -53.2490   51.1478  -15.5599 C.ar      1 UNL1        0.1931
     16 O         -53.9712   50.8380  -14.6216 O.2       1 UNL1       -0.2870
     17 C         -51.7823   51.1536  -15.4594 C.ar      1 UNL1        0.0642
     18 C         -51.1442   50.7983  -14.2663 C.ar      1 UNL1       -0.0445
     19 H         -48.8729   49.3253  -12.9301 H         1 UNL1        0.0278
     20 H         -49.6549   50.6596  -12.0464 H         1 UNL1        0.0278
     21 H         -48.0917   50.9220  -12.8189 H         1 UNL1        0.0278
     22 H         -47.9153   51.1732  -15.2891 H         1 UNL1        0.0621
     23 H         -49.0621   51.8020  -17.3860 H         1 UNL1        0.0654
     24 H         -51.8683   51.4437  -20.3411 H         1 UNL1        0.0625
     25 H         -52.7680   52.1431  -22.5215 H         1 UNL1        0.0618
     26 H         -54.9096   53.3879  -22.6538 H         1 UNL1        0.0618
     27 H         -56.1555   53.9309  -20.5778 H         1 UNL1        0.0618
     28 H         -55.2805   53.2285  -18.3832 H         1 UNL1        0.0625
     29 H         -54.8997   51.5476  -16.9301 H         1 UNL1        0.0693
     30 H         -51.7401   50.5091  -13.4024 H         1 UNL1        0.0628
@<TRIPOS>BOND
     1    1    2 1
     2    2    3 ar
     3    3    4 ar
     4    4    5 ar
     5    5    6 ar
     6    6    7 ar
     7    7    8 1
     8    8    9 ar
     9    9   10 ar
    10   10   11 ar
    11   11   12 ar
    12   12   13 ar
    13    7   14 ar
    14   14   15 ar
    15   15   16 2
    16   15   17 ar
    17   17   18 ar
    18   18    2 ar
    19   17    5 ar
    20   13    8 ar
    21    1   19 1
    22    1   20 1
    23    1   21 1
    24    3   22 1
    25    4   23 1
    26    9   24 1
    27   10   25 1
    28   11   26 1
    29   12   27 1
    30   13   28 1
    31   14   29 1
    32   18   30 1
@<TRIPOS>SUBSTRUCTURE
1 UNL1 1
@<TRIPOS>COMMENT
6-methylflavone_Iso0
PLANTSmolcadARTstart hb
PLANTSmolcadARTstart HB
LINES
PLANTSmolcadARTstart HBCH
LINES
PLANTSmolcadARTstart HB-CHO
LINES
PLANTSmolcadARTend
PLANTSmolcadARTstart HB_WATER
LINES
PLANTSmolcadARTend

PLANTSmolcadARTend

@<TRIPOS>MOLECULE
6-methylflavone_Iso0_entry_00001_conf_09
30 32 1
SMALL
NO_CHARGES


@<TRIPOS>ATOM
      1 C         -54.8253   51.8335  -23.2916 C.3       1 UNL1       -0.0397
      2 C         -54.1156   51.8134  -21.9697 C.ar      1 UNL1       -0.0495
      3 C         -52.7147   51.7993  -21.9150 C.ar      1 UNL1       -0.0553
      4 C         -52.0508   51.8122  -20.6851 C.ar      1 UNL1       -0.0184
      5 C         -52.7835   51.8505  -19.5003 C.ar      1 UNL1        0.1393
      6 O         -52.0758   51.8610  -18.3251 O.2       1 UNL1       -0.4546
      7 C         -52.7803   51.9150  -17.1318 C.ar      1 UNL1        0.1392
      8 C         -51.9280   51.9167  -15.9270 C.ar      1 UNL1        0.0174
      9 C         -50.6485   52.4934  -15.9333 C.ar      1 UNL1       -0.0511
     10 C         -49.8524   52.4767  -14.7847 C.ar      1 UNL1       -0.0611
     11 C         -50.3225   51.8789  -13.6177 C.ar      1 UNL1       -0.0617
     12 C         -51.5862   51.2937  -13.5982 C.ar      1 UNL1       -0.0611
     13 C         -52.3822   51.3096  -14.7465 C.ar      1 UNL1       -0.0511
     14 C         -54.1186   51.9392  -17.0466 C.ar      1 UNL1        0.0287
     15 C         -54.9196   51.9269  -18.2812 C.ar      1 UNL1        0.1931
     16 O         -56.1425   51.9562  -18.2393 O.2       1 UNL1       -0.2870
     17 C         -54.1736   51.8793  -19.5471 C.ar      1 UNL1        0.0642
     18 C         -54.8446   51.8662  -20.7745 C.ar      1 UNL1       -0.0445
     19 H         -54.9752   52.8666  -23.6199 H         1 UNL1        0.0278
     20 H         -55.8000   51.3395  -23.2189 H         1 UNL1        0.0278
     21 H         -54.2471   51.2999  -24.0533 H         1 UNL1        0.0278
     22 H         -52.1305   51.7776  -22.8333 H         1 UNL1        0.0621
     23 H         -50.9645   51.7966  -20.6544 H         1 UNL1        0.0654
     24 H         -50.2499   52.9516  -16.8358 H         1 UNL1        0.0625
     25 H         -48.8630   52.9269  -14.8039 H         1 UNL1        0.0618
     26 H         -49.7025   51.8655  -12.7250 H         1 UNL1        0.0618
     27 H         -51.9541   50.8235  -12.6898 H         1 UNL1        0.0618
     28 H         -53.3670   50.8482  -14.7093 H         1 UNL1        0.0625
     29 H         -54.6668   51.9577  -16.1139 H         1 UNL1        0.0693
     30 H         -55.9327   51.8964  -20.7937 H         1 UNL1        0.0628
@<TRIPOS>BOND
     1    1    2 1
     2    2    3 ar
     3    3    4 ar
     4    4    5 ar
     5    5    6 ar
     6    6    7 ar
     7    7    8 1
     8    8    9 ar
     9    9   10 ar
    10   10   11 ar
    11   11   12 ar
    12   12   13 ar
    13    7   14 ar
    14   14   15 ar
    15   15   16 2
    16   15   17 ar
    17   17   18 ar
    18   18    2 ar
    19   17    5 ar
    20   13    8 ar
    21    1   19 1
    22    1   20 1
    23    1   21 1
    24    3   22 1
    25    4   23 1
    26    9   24 1
    27   10   25 1
    28   11   26 1
    29   12   27 1
    30   13   28 1
    31   14   29 1
    32   18   30 1
@<TRIPOS>SUBSTRUCTURE
1 UNL1 1
@<TRIPOS>COMMENT
6-methylflavone_Iso0
PLANTSmolcadARTstart hb
PLANTSmolcadARTstart HB
LINES
PLANTSmolcadARTstart HBCH
LINES
PLANTSmolcadARTstart HB-CHO
LINES
PLANTSmolcadARTend
PLANTSmolcadARTstart HB_WATER
LINES
PLANTSmolcadARTend

PLANTSmolcadARTend

@<TRIPOS>MOLECULE
6-methylflavone_Iso0_entry_00001_conf_10
30 32 1
SMALL
NO_CHARGES


@<TRIPOS>ATOM
      1 C         -49.7819   51.8077  -12.1929 C.3       1 UNL1       -0.0397
      2 C         -50.3216   51.8809  -13.5911 C.ar      1 UNL1       -0.0495
      3 C         -49.5411   52.4122  -14.6276 C.ar      1 UNL1       -0.0553
      4 C         -50.0295   52.4528  -15.9365 C.ar      1 UNL1       -0.0184
      5 C         -51.2985   51.9519  -16.2207 C.ar      1 UNL1        0.1393
      6 O         -51.7227   52.0200  -17.5235 O.2       1 UNL1       -0.4546
      7 C         -52.9754   51.5139  -17.8362 C.ar      1 UNL1        0.1392
      8 C         -53.3389   51.6397  -19.2610 C.ar      1 UNL1        0.0174
      9 C         -54.6743   51.7838  -19.6683 C.ar      1 UNL1       -0.0511
     10 C         -54.9996   51.8919  -21.0233 C.ar      1 UNL1       -0.0611
     11 C         -53.9955   51.8521  -21.9879 C.ar      1 UNL1       -0.0617
     12 C         -52.6664   51.7000  -21.6003 C.ar      1 UNL1       -0.0611
     13 C         -52.3408   51.5911  -20.2458 C.ar      1 UNL1       -0.0511
     14 C         -53.8158   50.9745  -16.9410 C.ar      1 UNL1        0.0287
     15 C         -53.4046   50.8825  -15.5308 C.ar      1 UNL1        0.1931
     16 O         -54.1441   50.3888  -14.6898 O.2       1 UNL1       -0.2870
     17 C         -52.0729   51.4099  -15.1998 C.ar      1 UNL1        0.0642
     18 C         -51.5906   51.3665  -13.8874 C.ar      1 UNL1       -0.0445
     19 H         -49.2526   50.8614  -12.0455 H         1 UNL1        0.0278
     20 H         -50.5906   51.8800  -11.4581 H         1 UNL1        0.0278
     21 H         -49.0910   52.6345  -11.9974 H         1 UNL1        0.0278
     22 H         -48.5451   52.7994  -14.4205 H         1 UNL1        0.0621
     23 H         -49.4176   52.8710  -16.7315 H         1 UNL1        0.0654
     24 H         -55.4796   51.8005  -18.9372 H         1 UNL1        0.0625
     25 H         -56.0382   52.0027  -21.3246 H         1 UNL1        0.0618
     26 H         -54.2491   51.9355  -23.0416 H         1 UNL1        0.0618
     27 H         -51.8812   51.6651  -22.3513 H         1 UNL1        0.0618
     28 H         -51.2962   51.4744  -19.9645 H         1 UNL1        0.0625
     29 H         -54.8023   50.6016  -17.1830 H         1 UNL1        0.0693
     30 H         -52.2064   50.9325  -13.1016 H         1 UNL1        0.0628
@<TRIPOS>BOND
     1    1    2 1
     2    2    3 ar
     3    3    4 ar
     4    4    5 ar
     5    5    6 ar
     6    6    7 ar
     7    7    8 1
     8    8    9 ar
     9    9   10 ar
    10   10   11 ar
    11   11   12 ar
    12   12   13 ar
    13    7   14 ar
    14   14   15 ar
    15   15   16 2
    16   15   17 ar
    17   17   18 ar
    18   18    2 ar
    19   17    5 ar
    20   13    8 ar
    21    1   19 1
    22    1   20 1
    23    1   21 1
    24    3   22 1
    25    4   23 1
    26    9   24 1
    27   10   25 1
    28   11   26 1
    29   12   27 1
    30   13   28 1
    31   14   29 1
    32   18   30 1
@<TRIPOS>SUBSTRUCTURE
1 UNL1 1
@<TRIPOS>COMMENT
6-methylflavone_Iso0
PLANTSmolcadARTstart hb
PLANTSmolcadARTstart HB
LINES
PLANTSmolcadARTstart HBCH
LINES
PLANTSmolcadARTstart HB-CHO
LINES
PLANTSmolcadARTend
PLANTSmolcadARTstart HB_WATER
LINES
PLANTSmolcadARTend

PLANTSmolcadARTend

