@<TRIPOS>MOLECULE
Chrysin_Iso0_entry_00001_conf_01
29 31 1
SMALL
NO_CHARGES


@<TRIPOS>ATOM
      1 O         -55.5712   52.8366  -17.8957 O.2       1 UNL1       -0.2869
      2 C         -54.4016   52.5159  -18.0778 C.ar      1 UNL1        0.1966
      3 C         -53.4588   52.3676  -16.9606 C.ar      1 UNL1        0.0288
      4 C         -52.1936   52.0070  -17.2213 C.ar      1 UNL1        0.1392
      5 C         -51.1956   51.8512  -16.1450 C.ar      1 UNL1        0.0174
      6 C         -51.6134   51.7780  -14.8075 C.ar      1 UNL1       -0.0511
      7 C         -50.6834   51.6388  -13.7740 C.ar      1 UNL1       -0.0611
      8 C         -49.3226   51.5777  -14.0641 C.ar      1 UNL1       -0.0617
      9 C         -48.8904   51.6596  -15.3858 C.ar      1 UNL1       -0.0611
     10 C         -49.8203   51.7984  -16.4199 C.ar      1 UNL1       -0.0511
     11 O         -51.6954   51.7758  -18.4947 O.2       1 UNL1       -0.4544
     12 C         -52.5465   51.9024  -19.5641 C.ar      1 UNL1        0.1462
     13 C         -52.0176   51.6540  -20.8303 C.ar      1 UNL1        0.0231
     14 C         -52.8371   51.7692  -21.9501 C.ar      1 UNL1        0.1239
     15 O         -52.2806   51.5180  -23.1695 O.3       1 UNL1       -0.5065
     16 C         -54.1768   52.1284  -21.8269 C.ar      1 UNL1        0.0223
     17 C         -54.6993   52.3752  -20.5596 C.ar      1 UNL1        0.1347
     18 O         -56.0214   52.7252  -20.4951 O.3       1 UNL1       -0.5058
     19 C         -53.8852   52.2624  -19.4273 C.ar      1 UNL1        0.1055
     20 H         -53.8399   52.5712  -15.9685 H         1 UNL1        0.0693
     21 H         -52.6717   51.8232  -14.5581 H         1 UNL1        0.0625
     22 H         -51.0231   51.5797  -12.7431 H         1 UNL1        0.0618
     23 H         -48.5989   51.4713  -13.2600 H         1 UNL1        0.0618
     24 H         -47.8278   51.6210  -15.6128 H         1 UNL1        0.0618
     25 H         -49.4534   51.8782  -17.4408 H         1 UNL1        0.0625
     26 H         -50.9750   51.3717  -20.9464 H         1 UNL1        0.0691
     27 H         -51.6623   52.2364  -23.3864 H         1 UNL1        0.2921
     28 H         -54.8223   52.2205  -22.6947 H         1 UNL1        0.0691
     29 H         -56.1623   53.5008  -21.0847 H         1 UNL1        0.2922
@<TRIPOS>BOND
     1    1    2 2
     2    2    3 ar
     3    3    4 ar
     4    4    5 1
     5    5    6 ar
     6    6    7 ar
     7    7    8 ar
     8    8    9 ar
     9    9   10 ar
    10    4   11 ar
    11   11   12 ar
    12   12   13 ar
    13   13   14 ar
    14   14   15 1
    15   14   16 ar
    16   16   17 ar
    17   17   18 1
    18   17   19 ar
    19   19    2 ar
    20   10    5 ar
    21   19   12 ar
    22    3   20 1
    23    6   21 1
    24    7   22 1
    25    8   23 1
    26    9   24 1
    27   10   25 1
    28   13   26 1
    29   15   27 1
    30   16   28 1
    31   18   29 1
@<TRIPOS>SUBSTRUCTURE
1 UNL1 1
@<TRIPOS>COMMENT
Chrysin_Iso0
PLANTSmolcadARTstart hb
PLANTSmolcadARTstart HB
LINES
PLANTSmolcadARTstart HBCH
LINES
PLANTSmolcadARTstart HB-CHO
LINES
PLANTSmolcadARTend
PLANTSmolcadARTstart HB_WATER
LINES
PLANTSmolcadARTend

PLANTSmolcadARTend

@<TRIPOS>MOLECULE
Chrysin_Iso0_entry_00001_conf_02
29 31 1
SMALL
NO_CHARGES


@<TRIPOS>ATOM
      1 O         -53.3934   52.5496  -20.6614 O.2       1 UNL1       -0.2869
      2 C         -53.3279   52.3123  -19.4600 C.ar      1 UNL1        0.1966
      3 C         -52.0440   52.0576  -18.7922 C.ar      1 UNL1        0.0288
      4 C         -52.0348   51.8113  -17.4739 C.ar      1 UNL1        0.1392
      5 C         -50.7800   51.5377  -16.7463 C.ar      1 UNL1        0.0174
      6 C         -49.7059   50.9240  -17.4084 C.ar      1 UNL1       -0.0511
      7 C         -48.5129   50.6492  -16.7348 C.ar      1 UNL1       -0.0611
      8 C         -48.3809   50.9785  -15.3880 C.ar      1 UNL1       -0.0617
      9 C         -49.4415   51.5785  -14.7131 C.ar      1 UNL1       -0.0611
     10 C         -50.6348   51.8540  -15.3866 C.ar      1 UNL1       -0.0511
     11 O         -53.1721   51.7617  -16.6819 O.2       1 UNL1       -0.4544
     12 C         -54.3902   51.9965  -17.2694 C.ar      1 UNL1        0.1462
     13 C         -55.5135   51.9487  -16.4445 C.ar      1 UNL1        0.0231
     14 C         -56.7743   52.1783  -16.9892 C.ar      1 UNL1        0.1239
     15 O         -57.8463   52.1221  -16.1482 O.3       1 UNL1       -0.5065
     16 C         -56.9324   52.4550  -18.3448 C.ar      1 UNL1        0.0223
     17 C         -55.8066   52.5013  -19.1637 C.ar      1 UNL1        0.1347
     18 O         -56.0183   52.7768  -20.4880 O.3       1 UNL1       -0.5058
     19 C         -54.5349   52.2724  -18.6271 C.ar      1 UNL1        0.1055
     20 H         -51.1581   52.0722  -19.4133 H         1 UNL1        0.0693
     21 H         -49.7870   50.6586  -18.4607 H         1 UNL1        0.0625
     22 H         -47.6885   50.1768  -17.2627 H         1 UNL1        0.0618
     23 H         -47.4536   50.7631  -14.8634 H         1 UNL1        0.0618
     24 H         -49.3429   51.8280  -13.6595 H         1 UNL1        0.0618
     25 H         -51.4526   52.3064  -14.8302 H         1 UNL1        0.0625
     26 H         -55.4101   51.7353  -15.3843 H         1 UNL1        0.0691
     27 H         -57.6093   51.5851  -15.3730 H         1 UNL1        0.2921
     28 H         -57.9115   52.6350  -18.7774 H         1 UNL1        0.0691
     29 H         -55.1468   52.9667  -20.9046 H         1 UNL1        0.2922
@<TRIPOS>BOND
     1    1    2 2
     2    2    3 ar
     3    3    4 ar
     4    4    5 1
     5    5    6 ar
     6    6    7 ar
     7    7    8 ar
     8    8    9 ar
     9    9   10 ar
    10    4   11 ar
    11   11   12 ar
    12   12   13 ar
    13   13   14 ar
    14   14   15 1
    15   14   16 ar
    16   16   17 ar
    17   17   18 1
    18   17   19 ar
    19   19    2 ar
    20   10    5 ar
    21   19   12 ar
    22    3   20 1
    23    6   21 1
    24    7   22 1
    25    8   23 1
    26    9   24 1
    27   10   25 1
    28   13   26 1
    29   15   27 1
    30   16   28 1
    31   18   29 1
@<TRIPOS>SUBSTRUCTURE
1 UNL1 1
@<TRIPOS>COMMENT
Chrysin_Iso0
PLANTSmolcadARTstart hb
PLANTSmolcadARTstart HB
LINES
PLANTSmolcadARTstart HBCH
LINES
PLANTSmolcadARTstart HB-CHO
LINES
PLANTSmolcadARTend
PLANTSmolcadARTstart HB_WATER
LINES
PLANTSmolcadARTend

PLANTSmolcadARTend

@<TRIPOS>MOLECULE
Chrysin_Iso0_entry_00001_conf_03
29 31 1
SMALL
NO_CHARGES


@<TRIPOS>ATOM
      1 O         -54.1061   50.9410  -15.2376 O.2       1 UNL1       -0.2869
      2 C         -53.2047   51.1843  -16.0326 C.ar      1 UNL1        0.1966
      3 C         -53.4775   51.4477  -17.4522 C.ar      1 UNL1        0.0288
      4 C         -52.4509   51.7155  -18.2726 C.ar      1 UNL1        0.1392
      5 C         -52.6570   51.9784  -19.7104 C.ar      1 UNL1        0.0174
      6 C         -51.7378   51.4890  -20.6508 C.ar      1 UNL1       -0.0511
      7 C         -51.9111   51.7343  -22.0154 C.ar      1 UNL1       -0.0611
      8 C         -53.0026   52.4783  -22.4570 C.ar      1 UNL1       -0.0617
      9 C         -53.9186   52.9804  -21.5356 C.ar      1 UNL1       -0.0611
     10 C         -53.7460   52.7349  -20.1705 C.ar      1 UNL1       -0.0511
     11 O         -51.1226   51.7460  -17.8751 O.2       1 UNL1       -0.4544
     12 C         -50.8279   51.5069  -16.5561 C.ar      1 UNL1        0.1462
     13 C         -49.4842   51.5541  -16.1863 C.ar      1 UNL1        0.0231
     14 C         -49.1292   51.3179  -14.8607 C.ar      1 UNL1        0.1239
     15 O         -47.8047   51.3732  -14.5412 O.3       1 UNL1       -0.5065
     16 C         -50.0942   51.0354  -13.8973 C.ar      1 UNL1        0.0223
     17 C         -51.4348   50.9896  -14.2728 C.ar      1 UNL1        0.1347
     18 O         -52.3420   50.7073  -13.2870 O.3       1 UNL1       -0.5058
     19 C         -51.8029   51.2254  -15.6018 C.ar      1 UNL1        0.1055
     20 H         -54.5112   51.4005  -17.7687 H         1 UNL1        0.0693
     21 H         -50.8781   50.9050  -20.3280 H         1 UNL1        0.0625
     22 H         -51.1922   51.3452  -22.7319 H         1 UNL1        0.0618
     23 H         -53.1364   52.6708  -23.5184 H         1 UNL1        0.0618
     24 H         -54.7662   53.5688  -21.8783 H         1 UNL1        0.0618
     25 H         -54.4667   53.1545  -19.4722 H         1 UNL1        0.0625
     26 H         -48.7170   51.7739  -16.9235 H         1 UNL1        0.0691
     27 H         -47.5997   52.2624  -14.2052 H         1 UNL1        0.2921
     28 H         -49.8261   50.8499  -12.8620 H         1 UNL1        0.0691
     29 H         -52.0132   51.1001  -12.4463 H         1 UNL1        0.2922
@<TRIPOS>BOND
     1    1    2 2
     2    2    3 ar
     3    3    4 ar
     4    4    5 1
     5    5    6 ar
     6    6    7 ar
     7    7    8 ar
     8    8    9 ar
     9    9   10 ar
    10    4   11 ar
    11   11   12 ar
    12   12   13 ar
    13   13   14 ar
    14   14   15 1
    15   14   16 ar
    16   16   17 ar
    17   17   18 1
    18   17   19 ar
    19   19    2 ar
    20   10    5 ar
    21   19   12 ar
    22    3   20 1
    23    6   21 1
    24    7   22 1
    25    8   23 1
    26    9   24 1
    27   10   25 1
    28   13   26 1
    29   15   27 1
    30   16   28 1
    31   18   29 1
@<TRIPOS>SUBSTRUCTURE
1 UNL1 1
@<TRIPOS>COMMENT
Chrysin_Iso0
PLANTSmolcadARTstart hb
PLANTSmolcadARTstart HB
LINES
PLANTSmolcadARTstart HBCH
LINES
PLANTSmolcadARTstart HB-CHO
LINES
PLANTSmolcadARTend
PLANTSmolcadARTstart HB_WATER
LINES
PLANTSmolcadARTend

PLANTSmolcadARTend

@<TRIPOS>MOLECULE
Chrysin_Iso0_entry_00001_conf_04
29 31 1
SMALL
NO_CHARGES


@<TRIPOS>ATOM
      1 O         -55.6142   52.8382  -17.8836 O.2       1 UNL1       -0.2869
      2 C         -54.4422   52.5247  -18.0620 C.ar      1 UNL1        0.1966
      3 C         -53.5025   52.3802  -16.9416 C.ar      1 UNL1        0.0288
      4 C         -52.2342   52.0275  -17.1984 C.ar      1 UNL1        0.1392
      5 C         -51.2392   51.8759  -16.1188 C.ar      1 UNL1        0.0174
      6 C         -49.8690   51.9323  -16.4160 C.ar      1 UNL1       -0.0511
      7 C         -48.9118   51.7828  -15.4092 C.ar      1 UNL1       -0.0611
      8 C         -49.3122   51.5680  -14.0927 C.ar      1 UNL1       -0.0617
      9 C         -50.6684   51.4987  -13.7824 C.ar      1 UNL1       -0.0611
     10 C         -51.6263   51.6487  -14.7890 C.ar      1 UNL1       -0.0511
     11 O         -51.7302   51.8012  -18.4704 O.2       1 UNL1       -0.4544
     12 C         -52.5782   51.9244  -19.5426 C.ar      1 UNL1        0.1462
     13 C         -52.0433   51.6811  -20.8072 C.ar      1 UNL1        0.0231
     14 C         -52.8594   51.7932  -21.9299 C.ar      1 UNL1        0.1239
     15 O         -52.2972   51.5472  -23.1476 O.3       1 UNL1       -0.5065
     16 C         -54.2017   52.1444  -21.8109 C.ar      1 UNL1        0.0223
     17 C         -54.7302   52.3862  -20.5450 C.ar      1 UNL1        0.1347
     18 O         -56.0545   52.7282  -20.4847 O.3       1 UNL1       -0.5058
     19 C         -53.9194   52.2764  -19.4101 C.ar      1 UNL1        0.1055
     20 H         -53.8883   52.5800  -15.9506 H         1 UNL1        0.0693
     21 H         -49.5337   52.0997  -17.4377 H         1 UNL1        0.0625
     22 H         -47.8540   51.8327  -15.6549 H         1 UNL1        0.0618
     23 H         -48.5675   51.4497  -13.3097 H         1 UNL1        0.0618
     24 H         -50.9821   51.3222  -12.7565 H         1 UNL1        0.0618
     25 H         -52.6776   51.5719  -14.5209 H         1 UNL1        0.0625
     26 H         -50.9986   51.4051  -20.9201 H         1 UNL1        0.0691
     27 H         -51.5161   50.9813  -23.0241 H         1 UNL1        0.2921
     28 H         -54.8447   52.2341  -22.6808 H         1 UNL1        0.0691
     29 H         -56.5625   51.9370  -20.1931 H         1 UNL1        0.2922
@<TRIPOS>BOND
     1    1    2 2
     2    2    3 ar
     3    3    4 ar
     4    4    5 1
     5    5    6 ar
     6    6    7 ar
     7    7    8 ar
     8    8    9 ar
     9    9   10 ar
    10    4   11 ar
    11   11   12 ar
    12   12   13 ar
    13   13   14 ar
    14   14   15 1
    15   14   16 ar
    16   16   17 ar
    17   17   18 1
    18   17   19 ar
    19   19    2 ar
    20   10    5 ar
    21   19   12 ar
    22    3   20 1
    23    6   21 1
    24    7   22 1
    25    8   23 1
    26    9   24 1
    27   10   25 1
    28   13   26 1
    29   15   27 1
    30   16   28 1
    31   18   29 1
@<TRIPOS>SUBSTRUCTURE
1 UNL1 1
@<TRIPOS>COMMENT
Chrysin_Iso0
PLANTSmolcadARTstart hb
PLANTSmolcadARTstart HB
LINES
PLANTSmolcadARTstart HBCH
LINES
PLANTSmolcadARTstart HB-CHO
LINES
PLANTSmolcadARTend
PLANTSmolcadARTstart HB_WATER
LINES
PLANTSmolcadARTend

PLANTSmolcadARTend

@<TRIPOS>MOLECULE
Chrysin_Iso0_entry_00001_conf_05
29 31 1
SMALL
NO_CHARGES


@<TRIPOS>ATOM
      1 O         -49.5122   51.2991  -16.4590 O.2       1 UNL1       -0.2869
      2 C         -50.7137   51.3645  -16.6953 C.ar      1 UNL1        0.1966
      3 C         -51.2228   51.5562  -18.0603 C.ar      1 UNL1        0.0288
      4 C         -52.5481   51.6123  -18.2578 C.ar      1 UNL1        0.1392
      5 C         -53.1226   51.8134  -19.6025 C.ar      1 UNL1        0.0174
      6 C         -54.4972   52.0548  -19.7481 C.ar      1 UNL1       -0.0511
      7 C         -55.0611   52.2395  -21.0131 C.ar      1 UNL1       -0.0611
      8 C         -54.2589   52.1784  -22.1499 C.ar      1 UNL1       -0.0617
      9 C         -52.8942   51.9291  -22.0236 C.ar      1 UNL1       -0.0611
     10 C         -52.3295   51.7448  -20.7584 C.ar      1 UNL1       -0.0511
     11 O         -53.4919   51.5178  -17.2461 O.2       1 UNL1       -0.4544
     12 C         -53.0551   51.3362  -15.9576 C.ar      1 UNL1        0.1462
     13 C         -54.0289   51.2354  -14.9645 C.ar      1 UNL1        0.0231
     14 C         -53.6407   51.0517  -13.6400 C.ar      1 UNL1        0.1239
     15 O         -54.6242   50.9584  -12.6999 O.3       1 UNL1       -0.5065
     16 C         -52.2955   50.9668  -13.2900 C.ar      1 UNL1        0.0223
     17 C         -51.3275   51.0681  -14.2864 C.ar      1 UNL1        0.1347
     18 O         -50.0207   50.9785  -13.8879 O.3       1 UNL1       -0.5058
     19 C         -51.7060   51.2527  -15.6206 C.ar      1 UNL1        0.1055
     20 H         -50.4870   51.6544  -18.8476 H         1 UNL1        0.0693
     21 H         -55.1427   52.1071  -18.8734 H         1 UNL1        0.0625
     22 H         -56.1272   52.4294  -21.1091 H         1 UNL1        0.0618
     23 H         -54.6979   52.3202  -23.1341 H         1 UNL1        0.0618
     24 H         -52.2684   51.8723  -22.9108 H         1 UNL1        0.0618
     25 H         -51.2647   51.5336  -20.6908 H         1 UNL1        0.0625
     26 H         -55.0834   51.2983  -15.2182 H         1 UNL1        0.0691
     27 H         -54.7700   51.8371  -12.3099 H         1 UNL1        0.2921
     28 H         -51.9845   50.8238  -12.2600 H         1 UNL1        0.0691
     29 H         -49.4566   51.3588  -14.5994 H         1 UNL1        0.2922
@<TRIPOS>BOND
     1    1    2 2
     2    2    3 ar
     3    3    4 ar
     4    4    5 1
     5    5    6 ar
     6    6    7 ar
     7    7    8 ar
     8    8    9 ar
     9    9   10 ar
    10    4   11 ar
    11   11   12 ar
    12   12   13 ar
    13   13   14 ar
    14   14   15 1
    15   14   16 ar
    16   16   17 ar
    17   17   18 1
    18   17   19 ar
    19   19    2 ar
    20   10    5 ar
    21   19   12 ar
    22    3   20 1
    23    6   21 1
    24    7   22 1
    25    8   23 1
    26    9   24 1
    27   10   25 1
    28   13   26 1
    29   15   27 1
    30   16   28 1
    31   18   29 1
@<TRIPOS>SUBSTRUCTURE
1 UNL1 1
@<TRIPOS>COMMENT
Chrysin_Iso0
PLANTSmolcadARTstart hb
PLANTSmolcadARTstart HB
LINES
PLANTSmolcadARTstart HBCH
LINES
PLANTSmolcadARTstart HB-CHO
LINES
PLANTSmolcadARTend
PLANTSmolcadARTstart HB_WATER
LINES
PLANTSmolcadARTend

PLANTSmolcadARTend

@<TRIPOS>MOLECULE
Chrysin_Iso0_entry_00001_conf_06
29 31 1
SMALL
NO_CHARGES


@<TRIPOS>ATOM
      1 O         -53.3803   52.6015  -14.7616 O.2       1 UNL1       -0.2869
      2 C         -52.7447   52.3346  -15.7758 C.ar      1 UNL1        0.1966
      3 C         -53.3700   52.3502  -17.1054 C.ar      1 UNL1        0.0288
      4 C         -52.6218   52.0568  -18.1791 C.ar      1 UNL1        0.1392
      5 C         -53.1922   52.0450  -19.5404 C.ar      1 UNL1        0.0174
      6 C         -52.4146   51.6038  -20.6219 C.ar      1 UNL1       -0.0511
      7 C         -52.9339   51.5928  -21.9190 C.ar      1 UNL1       -0.0611
      8 C         -54.2356   52.0295  -22.1527 C.ar      1 UNL1       -0.0617
      9 C         -55.0172   52.4807  -21.0917 C.ar      1 UNL1       -0.0611
     10 C         -54.4985   52.4913  -19.7939 C.ar      1 UNL1       -0.0511
     11 O         -51.2785   51.7164  -18.1239 O.2       1 UNL1       -0.4544
     12 C         -50.6585   51.6929  -16.8996 C.ar      1 UNL1        0.1462
     13 C         -49.3054   51.3561  -16.8787 C.ar      1 UNL1        0.0231
     14 C         -48.6276   51.3159  -15.6630 C.ar      1 UNL1        0.1239
     15 O         -47.3057   50.9820  -15.6867 O.3       1 UNL1       -0.5065
     16 C         -49.2787   51.6067  -14.4669 C.ar      1 UNL1        0.0223
     17 C         -50.6302   51.9424  -14.4941 C.ar      1 UNL1        0.1347
     18 O         -51.2214   52.2185  -13.2905 O.3       1 UNL1       -0.5058
     19 C         -51.3212   51.9860  -15.7099 C.ar      1 UNL1        0.1055
     20 H         -54.4239   52.5921  -17.1476 H         1 UNL1        0.0693
     21 H         -51.3953   51.2577  -20.4622 H         1 UNL1        0.0625
     22 H         -52.3202   51.2445  -22.7459 H         1 UNL1        0.0618
     23 H         -54.6390   52.0228  -23.1621 H         1 UNL1        0.0618
     24 H         -56.0305   52.8302  -21.2741 H         1 UNL1        0.0618
     25 H         -55.1248   52.8659  -18.9874 H         1 UNL1        0.0625
     26 H         -48.7801   51.1270  -17.8017 H         1 UNL1        0.0691
     27 H         -46.9923   51.0061  -16.6069 H         1 UNL1        0.2921
     28 H         -48.7578   51.5776  -13.5150 H         1 UNL1        0.0691
     29 H         -51.8614   51.4977  -13.0909 H         1 UNL1        0.2922
@<TRIPOS>BOND
     1    1    2 2
     2    2    3 ar
     3    3    4 ar
     4    4    5 1
     5    5    6 ar
     6    6    7 ar
     7    7    8 ar
     8    8    9 ar
     9    9   10 ar
    10    4   11 ar
    11   11   12 ar
    12   12   13 ar
    13   13   14 ar
    14   14   15 1
    15   14   16 ar
    16   16   17 ar
    17   17   18 1
    18   17   19 ar
    19   19    2 ar
    20   10    5 ar
    21   19   12 ar
    22    3   20 1
    23    6   21 1
    24    7   22 1
    25    8   23 1
    26    9   24 1
    27   10   25 1
    28   13   26 1
    29   15   27 1
    30   16   28 1
    31   18   29 1
@<TRIPOS>SUBSTRUCTURE
1 UNL1 1
@<TRIPOS>COMMENT
Chrysin_Iso0
PLANTSmolcadARTstart hb
PLANTSmolcadARTstart HB
LINES
PLANTSmolcadARTstart HBCH
LINES
PLANTSmolcadARTstart HB-CHO
LINES
PLANTSmolcadARTend
PLANTSmolcadARTstart HB_WATER
LINES
PLANTSmolcadARTend

PLANTSmolcadARTend

@<TRIPOS>MOLECULE
Chrysin_Iso0_entry_00001_conf_07
29 31 1
SMALL
NO_CHARGES


@<TRIPOS>ATOM
      1 O         -51.0815   50.9650  -20.5382 O.2       1 UNL1       -0.2869
      2 C         -51.8369   51.2684  -19.6211 C.ar      1 UNL1        0.1966
      3 C         -51.3959   51.2506  -18.2195 C.ar      1 UNL1        0.0288
      4 C         -52.2654   51.6000  -17.2600 C.ar      1 UNL1        0.1392
      5 C         -51.8878   51.5929  -15.8331 C.ar      1 UNL1        0.0174
      6 C         -52.8685   51.3923  -14.8500 C.ar      1 UNL1       -0.0511
      7 C         -52.5322   51.3904  -13.4938 C.ar      1 UNL1       -0.0611
      8 C         -51.2115   51.5960  -13.1026 C.ar      1 UNL1       -0.0617
      9 C         -50.2274   51.8073  -14.0656 C.ar      1 UNL1       -0.0611
     10 C         -50.5632   51.8087  -15.4223 C.ar      1 UNL1       -0.0511
     11 O         -53.5814   51.9678  -17.4967 O.2       1 UNL1       -0.4544
     12 C         -54.0299   51.9985  -18.7936 C.ar      1 UNL1        0.1462
     13 C         -55.3549   52.3815  -18.9990 C.ar      1 UNL1        0.0231
     14 C         -55.8619   52.4286  -20.2951 C.ar      1 UNL1        0.1239
     15 O         -57.1623   52.8078  -20.4522 O.3       1 UNL1       -0.5065
     16 C         -55.0673   52.0995  -21.3904 C.ar      1 UNL1        0.0223
     17 C         -53.7446   51.7176  -21.1788 C.ar      1 UNL1        0.1347
     18 O         -53.0080   51.4043  -22.2895 O.3       1 UNL1       -0.5058
     19 C         -53.2247   51.6669  -19.8808 C.ar      1 UNL1        0.1055
     20 H         -50.3764   50.9406  -18.0313 H         1 UNL1        0.0693
     21 H         -53.9067   51.2292  -15.1330 H         1 UNL1        0.0625
     22 H         -53.3030   51.2299  -12.7442 H         1 UNL1        0.0618
     23 H         -50.9501   51.5964  -12.0475 H         1 UNL1        0.0618
     24 H         -49.1975   51.9767  -13.7611 H         1 UNL1        0.0618
     25 H         -49.7777   51.9943  -16.1514 H         1 UNL1        0.0625
     26 H         -55.9900   52.6428  -18.1572 H         1 UNL1        0.0691
     27 H         -57.7314   52.0254  -20.3546 H         1 UNL1        0.2921
     28 H         -55.4546   52.1334  -22.4037 H         1 UNL1        0.0691
     29 H         -53.3068   50.5256  -22.6176 H         1 UNL1        0.2922
@<TRIPOS>BOND
     1    1    2 2
     2    2    3 ar
     3    3    4 ar
     4    4    5 1
     5    5    6 ar
     6    6    7 ar
     7    7    8 ar
     8    8    9 ar
     9    9   10 ar
    10    4   11 ar
    11   11   12 ar
    12   12   13 ar
    13   13   14 ar
    14   14   15 1
    15   14   16 ar
    16   16   17 ar
    17   17   18 1
    18   17   19 ar
    19   19    2 ar
    20   10    5 ar
    21   19   12 ar
    22    3   20 1
    23    6   21 1
    24    7   22 1
    25    8   23 1
    26    9   24 1
    27   10   25 1
    28   13   26 1
    29   15   27 1
    30   16   28 1
    31   18   29 1
@<TRIPOS>SUBSTRUCTURE
1 UNL1 1
@<TRIPOS>COMMENT
Chrysin_Iso0
PLANTSmolcadARTstart hb
PLANTSmolcadARTstart HB
LINES
PLANTSmolcadARTstart HBCH
LINES
PLANTSmolcadARTstart HB-CHO
LINES
PLANTSmolcadARTend
PLANTSmolcadARTstart HB_WATER
LINES
PLANTSmolcadARTend

PLANTSmolcadARTend

@<TRIPOS>MOLECULE
Chrysin_Iso0_entry_00001_conf_08
29 31 1
SMALL
NO_CHARGES


@<TRIPOS>ATOM
      1 O         -50.9896   50.8267  -20.7511 O.2       1 UNL1       -0.2869
      2 C         -51.6327   51.2793  -19.8101 C.ar      1 UNL1        0.1966
      3 C         -51.0718   51.3478  -18.4537 C.ar      1 UNL1        0.0288
      4 C         -51.8205   51.8603  -17.4660 C.ar      1 UNL1        0.1392
      5 C         -51.3195   51.9475  -16.0803 C.ar      1 UNL1        0.0174
      6 C         -50.2146   52.7604  -15.7848 C.ar      1 UNL1       -0.0511
      7 C         -49.7205   52.8497  -14.4808 C.ar      1 UNL1       -0.0611
      8 C         -50.3207   52.1218  -13.4563 C.ar      1 UNL1       -0.0617
      9 C         -51.4118   51.3019  -13.7347 C.ar      1 UNL1       -0.0611
     10 C         -51.9068   51.2126  -15.0387 C.ar      1 UNL1       -0.0511
     11 O         -53.1170   52.3241  -17.6306 O.2       1 UNL1       -0.4544
     12 C         -53.6748   52.2785  -18.8839 C.ar      1 UNL1        0.1462
     13 C         -54.9763   52.7610  -19.0183 C.ar      1 UNL1        0.0231
     14 C         -55.5907   52.7370  -20.2677 C.ar      1 UNL1        0.1239
     15 O         -56.8637   53.2179  -20.3557 O.3       1 UNL1       -0.5065
     16 C         -54.9268   52.2392  -21.3860 C.ar      1 UNL1        0.0223
     17 C         -53.6270   51.7587  -21.2454 C.ar      1 UNL1        0.1347
     18 O         -53.0207   51.2804  -22.3760 O.3       1 UNL1       -0.5058
     19 C         -52.9999   51.7780  -19.9949 C.ar      1 UNL1        0.1055
     20 H         -50.0691   50.9641  -18.3189 H         1 UNL1        0.0693
     21 H         -49.7305   53.3382  -16.5697 H         1 UNL1        0.0625
     22 H         -48.8660   53.4868  -14.2672 H         1 UNL1        0.0618
     23 H         -49.9352   52.1898  -12.4422 H         1 UNL1        0.0618
     24 H         -51.8757   50.7263  -12.9375 H         1 UNL1        0.0618
     25 H         -52.7482   50.5506  -15.2306 H         1 UNL1        0.0625
     26 H         -55.5101   53.1541  -18.1576 H         1 UNL1        0.0691
     27 H         -57.3502   52.9671  -19.5520 H         1 UNL1        0.2921
     28 H         -55.3985   52.2169  -22.3634 H         1 UNL1        0.0691
     29 H         -52.8771   52.0364  -22.9900 H         1 UNL1        0.2922
@<TRIPOS>BOND
     1    1    2 2
     2    2    3 ar
     3    3    4 ar
     4    4    5 1
     5    5    6 ar
     6    6    7 ar
     7    7    8 ar
     8    8    9 ar
     9    9   10 ar
    10    4   11 ar
    11   11   12 ar
    12   12   13 ar
    13   13   14 ar
    14   14   15 1
    15   14   16 ar
    16   16   17 ar
    17   17   18 1
    18   17   19 ar
    19   19    2 ar
    20   10    5 ar
    21   19   12 ar
    22    3   20 1
    23    6   21 1
    24    7   22 1
    25    8   23 1
    26    9   24 1
    27   10   25 1
    28   13   26 1
    29   15   27 1
    30   16   28 1
    31   18   29 1
@<TRIPOS>SUBSTRUCTURE
1 UNL1 1
@<TRIPOS>COMMENT
Chrysin_Iso0
PLANTSmolcadARTstart hb
PLANTSmolcadARTstart HB
LINES
PLANTSmolcadARTstart HBCH
LINES
PLANTSmolcadARTstart HB-CHO
LINES
PLANTSmolcadARTend
PLANTSmolcadARTstart HB_WATER
LINES
PLANTSmolcadARTend

PLANTSmolcadARTend

@<TRIPOS>MOLECULE
Chrysin_Iso0_entry_00001_conf_09
29 31 1
SMALL
NO_CHARGES


@<TRIPOS>ATOM
      1 O         -55.6843   51.5634  -17.1651 O.2       1 UNL1       -0.2869
      2 C         -54.5387   51.7473  -17.5622 C.ar      1 UNL1        0.1966
      3 C         -53.3812   51.6200  -16.6660 C.ar      1 UNL1        0.0288
      4 C         -52.1513   51.8256  -17.1597 C.ar      1 UNL1        0.1392
      5 C         -50.9488   51.7233  -16.3098 C.ar      1 UNL1        0.0174
      6 C         -50.9166   52.3638  -15.0618 C.ar      1 UNL1       -0.0511
      7 C         -49.7845   52.2855  -14.2465 C.ar      1 UNL1       -0.0611
      8 C         -48.6671   51.5712  -14.6716 C.ar      1 UNL1       -0.0617
      9 C         -48.6788   50.9384  -15.9125 C.ar      1 UNL1       -0.0611
     10 C         -49.8111   51.0159  -16.7282 C.ar      1 UNL1       -0.0511
     11 O         -51.8876   52.1730  -18.4762 O.2       1 UNL1       -0.4544
     12 C         -52.9431   52.2994  -19.3444 C.ar      1 UNL1        0.1462
     13 C         -52.6442   52.6403  -20.6631 C.ar      1 UNL1        0.0231
     14 C         -53.6776   52.7827  -21.5854 C.ar      1 UNL1        0.1239
     15 O         -53.3423   53.1171  -22.8643 O.3       1 UNL1       -0.5065
     16 C         -55.0055   52.5901  -21.2130 C.ar      1 UNL1        0.0223
     17 C         -55.2978   52.2497  -19.8943 C.ar      1 UNL1        0.1347
     18 O         -56.6189   52.0726  -19.5815 O.3       1 UNL1       -0.5058
     19 C         -54.2674   52.1039  -18.9591 C.ar      1 UNL1        0.1055
     20 H         -53.5871   51.3726  -15.6329 H         1 UNL1        0.0693
     21 H         -51.7786   52.9269  -14.7095 H         1 UNL1        0.0625
     22 H         -49.7764   52.7842  -13.2806 H         1 UNL1        0.0618
     23 H         -47.7857   51.5119  -14.0382 H         1 UNL1        0.0618
     24 H         -47.8038   50.3879  -16.2493 H         1 UNL1        0.0618
     25 H         -49.7856   50.5275  -17.6997 H         1 UNL1        0.0625
     26 H         -51.6142   52.7937  -20.9728 H         1 UNL1        0.0691
     27 H         -54.1567   53.2230  -23.3848 H         1 UNL1        0.2921
     28 H         -55.8169   52.6993  -21.9256 H         1 UNL1        0.0691
     29 H         -56.9119   51.2140  -19.9638 H         1 UNL1        0.2922
@<TRIPOS>BOND
     1    1    2 2
     2    2    3 ar
     3    3    4 ar
     4    4    5 1
     5    5    6 ar
     6    6    7 ar
     7    7    8 ar
     8    8    9 ar
     9    9   10 ar
    10    4   11 ar
    11   11   12 ar
    12   12   13 ar
    13   13   14 ar
    14   14   15 1
    15   14   16 ar
    16   16   17 ar
    17   17   18 1
    18   17   19 ar
    19   19    2 ar
    20   10    5 ar
    21   19   12 ar
    22    3   20 1
    23    6   21 1
    24    7   22 1
    25    8   23 1
    26    9   24 1
    27   10   25 1
    28   13   26 1
    29   15   27 1
    30   16   28 1
    31   18   29 1
@<TRIPOS>SUBSTRUCTURE
1 UNL1 1
@<TRIPOS>COMMENT
Chrysin_Iso0
PLANTSmolcadARTstart hb
PLANTSmolcadARTstart HB
LINES
PLANTSmolcadARTstart HBCH
LINES
PLANTSmolcadARTstart HB-CHO
LINES
PLANTSmolcadARTend
PLANTSmolcadARTstart HB_WATER
LINES
PLANTSmolcadARTend

PLANTSmolcadARTend

@<TRIPOS>MOLECULE
Chrysin_Iso0_entry_00001_conf_10
29 31 1
SMALL
NO_CHARGES


@<TRIPOS>ATOM
      1 O         -55.6940   51.8285  -17.1341 O.2       1 UNL1       -0.2869
      2 C         -54.5437   51.9074  -17.5515 C.ar      1 UNL1        0.1966
      3 C         -53.3870   51.8075  -16.6508 C.ar      1 UNL1        0.0288
      4 C         -52.1520   51.8935  -17.1668 C.ar      1 UNL1        0.1392
      5 C         -50.9496   51.8113  -16.3147 C.ar      1 UNL1        0.0174
      6 C         -50.2788   50.5879  -16.1659 C.ar      1 UNL1       -0.0511
      7 C         -49.1437   50.4880  -15.3573 C.ar      1 UNL1       -0.0611
      8 C         -48.6683   51.6090  -14.6812 C.ar      1 UNL1       -0.0617
      9 C         -49.3288   52.8287  -14.8097 C.ar      1 UNL1       -0.0611
     10 C         -50.4639   52.9292  -15.6189 C.ar      1 UNL1       -0.0511
     11 O         -51.8813   52.0907  -18.5125 O.2       1 UNL1       -0.4544
     12 C         -52.9360   52.1868  -19.3857 C.ar      1 UNL1        0.1462
     13 C         -52.6304   52.3754  -20.7332 C.ar      1 UNL1        0.0231
     14 C         -53.6625   52.4807  -21.6619 C.ar      1 UNL1        0.1239
     15 O         -53.3207   52.6648  -22.9691 O.3       1 UNL1       -0.5065
     16 C         -54.9957   52.4008  -21.2675 C.ar      1 UNL1        0.0223
     17 C         -55.2945   52.2124  -19.9202 C.ar      1 UNL1        0.1347
     18 O         -56.6205   52.1413  -19.5868 O.3       1 UNL1       -0.5058
     19 C         -54.2655   52.1051  -18.9783 C.ar      1 UNL1        0.1055
     20 H         -53.5970   51.6778  -15.5972 H         1 UNL1        0.0693
     21 H         -50.6325   49.6993  -16.6853 H         1 UNL1        0.0625
     22 H         -48.6329   49.5338  -15.2552 H         1 UNL1        0.0618
     23 H         -47.7864   51.5309  -14.0506 H         1 UNL1        0.0618
     24 H         -48.9639   53.7024  -14.2754 H         1 UNL1        0.0618
     25 H         -50.9701   53.8896  -15.6863 H         1 UNL1        0.0625
     26 H         -51.5964   52.4393  -21.0602 H         1 UNL1        0.0691
     27 H         -53.1725   53.6132  -23.1242 H         1 UNL1        0.2921
     28 H         -55.8061   52.4820  -21.9849 H         1 UNL1        0.0691
     29 H         -57.1429   52.5376  -20.3211 H         1 UNL1        0.2922
@<TRIPOS>BOND
     1    1    2 2
     2    2    3 ar
     3    3    4 ar
     4    4    5 1
     5    5    6 ar
     6    6    7 ar
     7    7    8 ar
     8    8    9 ar
     9    9   10 ar
    10    4   11 ar
    11   11   12 ar
    12   12   13 ar
    13   13   14 ar
    14   14   15 1
    15   14   16 ar
    16   16   17 ar
    17   17   18 1
    18   17   19 ar
    19   19    2 ar
    20   10    5 ar
    21   19   12 ar
    22    3   20 1
    23    6   21 1
    24    7   22 1
    25    8   23 1
    26    9   24 1
    27   10   25 1
    28   13   26 1
    29   15   27 1
    30   16   28 1
    31   18   29 1
@<TRIPOS>SUBSTRUCTURE
1 UNL1 1
@<TRIPOS>COMMENT
Chrysin_Iso0
PLANTSmolcadARTstart hb
PLANTSmolcadARTstart HB
LINES
PLANTSmolcadARTstart HBCH
LINES
PLANTSmolcadARTstart HB-CHO
LINES
PLANTSmolcadARTend
PLANTSmolcadARTstart HB_WATER
LINES
PLANTSmolcadARTend

PLANTSmolcadARTend

