@<TRIPOS>MOLECULE
Eriodictyol_Iso0_entry_00001_conf_01
33 35 1
SMALL
NO_CHARGES


@<TRIPOS>ATOM
      1 O         -50.5764   51.0409  -21.4664 O.2       1 UNL1       -0.2917
      2 C         -51.2407   51.3494  -20.4838 C.2       1 UNL1        0.1740
      3 C         -50.5787   51.5610  -19.1504 C.3       1 UNL1        0.0520
      4 C         -51.5275   51.0570  -18.0782 C.3       1 UNL1        0.1323
      5 C         -50.8942   51.1714  -16.7029 C.ar      1 UNL1       -0.0033
      6 C         -49.5510   50.8022  -16.5185 C.ar      1 UNL1       -0.0514
      7 C         -48.9424   50.9205  -15.2656 C.ar      1 UNL1       -0.0162
      8 C         -49.6728   51.4137  -14.1877 C.ar      1 UNL1        0.1582
      9 O         -49.0923   51.5352  -12.9567 O.3       1 UNL1       -0.5033
     10 C         -51.0042   51.7897  -14.3571 C.ar      1 UNL1        0.1586
     11 O         -51.7049   52.2742  -13.2881 O.3       1 UNL1       -0.5033
     12 C         -51.6148   51.6747  -15.6059 C.ar      1 UNL1       -0.0099
     13 O         -52.7447   51.8182  -18.0883 O.3       1 UNL1       -0.4828
     14 C         -53.3664   51.8238  -19.3113 C.ar      1 UNL1        0.1389
     15 C         -54.7322   52.1156  -19.2838 C.ar      1 UNL1        0.0225
     16 C         -55.4476   52.1352  -20.4743 C.ar      1 UNL1        0.1238
     17 O         -56.7837   52.4044  -20.4971 O.3       1 UNL1       -0.5065
     18 C         -54.8207   51.8783  -21.6886 C.ar      1 UNL1        0.0222
     19 C         -53.4507   51.6062  -21.7163 C.ar      1 UNL1        0.1343
     20 O         -52.8526   51.3771  -22.9216 O.3       1 UNL1       -0.5058
     21 C         -52.7099   51.5828  -20.5270 C.ar      1 UNL1        0.1007
     22 H         -49.6365   51.0017  -19.1285 H         1 UNL1        0.0385
     23 H         -50.3580   52.6298  -19.0477 H         1 UNL1        0.0385
     24 H         -51.7959   50.0042  -18.2508 H         1 UNL1        0.0789
     25 H         -48.9650   50.4191  -17.3521 H         1 UNL1        0.0623
     26 H         -47.9039   50.6260  -15.1509 H         1 UNL1        0.0655
     27 H         -49.7584   51.8349  -12.3200 H         1 UNL1        0.2923
     28 H         -52.2168   53.0478  -13.5686 H         1 UNL1        0.2923
     29 H         -52.6520   51.9714  -15.7360 H         1 UNL1        0.0659
     30 H         -55.2162   52.3123  -18.3319 H         1 UNL1        0.0691
     31 H         -57.0527   52.6056  -21.4096 H         1 UNL1        0.2921
     32 H         -55.4103   51.9022  -22.6004 H         1 UNL1        0.0691
     33 H         -53.5122   51.1067  -23.5802 H         1 UNL1        0.2922
@<TRIPOS>BOND
     1    1    2 2
     2    2    3 1
     3    3    4 1
     4    4    5 1
     5    5    6 ar
     6    6    7 ar
     7    7    8 ar
     8    8    9 1
     9    8   10 ar
    10   10   11 1
    11   10   12 ar
    12    4   13 1
    13   13   14 1
    14   14   15 ar
    15   15   16 ar
    16   16   17 1
    17   16   18 ar
    18   18   19 ar
    19   19   20 1
    20   19   21 ar
    21   21    2 1
    22   12    5 ar
    23   21   14 ar
    24    3   22 1
    25    3   23 1
    26    4   24 1
    27    6   25 1
    28    7   26 1
    29    9   27 1
    30   11   28 1
    31   12   29 1
    32   15   30 1
    33   17   31 1
    34   18   32 1
    35   20   33 1
@<TRIPOS>SUBSTRUCTURE
1 UNL1 1
@<TRIPOS>COMMENT
Eriodictyol_Iso0
PLANTSmolcadARTstart hb
PLANTSmolcadARTstart HB
LINES
-52.2168 53.0478 -13.5686 -52.899 54.348 -13.871 0 255 0 5
PLANTSmolcadARTstart HBCH
LINES
PLANTSmolcadARTstart HB-CHO
LINES
PLANTSmolcadARTend
PLANTSmolcadARTstart HB_WATER
LINES
PLANTSmolcadARTend

PLANTSmolcadARTend

@<TRIPOS>MOLECULE
Eriodictyol_Iso0_entry_00001_conf_02
33 35 1
SMALL
NO_CHARGES


@<TRIPOS>ATOM
      1 O         -50.6691   51.0176  -21.1728 O.2       1 UNL1       -0.2917
      2 C         -51.3680   51.3485  -20.2221 C.2       1 UNL1        0.1740
      3 C         -50.8638   51.1954  -18.8139 C.3       1 UNL1        0.0520
      4 C         -52.0434   50.8106  -17.9397 C.3       1 UNL1        0.1323
      5 C         -51.5956   50.5663  -16.5096 C.ar      1 UNL1       -0.0033
      6 C         -51.0838   49.3104  -16.1417 C.ar      1 UNL1       -0.0514
      7 C         -50.6456   49.0713  -14.8360 C.ar      1 UNL1       -0.0162
      8 C         -50.7124   50.0894  -13.8886 C.ar      1 UNL1        0.1582
      9 O         -50.2882   49.8713  -12.6082 O.3       1 UNL1       -0.5033
     10 C         -51.2120   51.3421  -14.2406 C.ar      1 UNL1        0.1586
     11 O         -51.2677   52.3303  -13.2979 O.3       1 UNL1       -0.5033
     12 C         -51.6488   51.5853  -15.5427 C.ar      1 UNL1       -0.0099
     13 O         -53.0290   51.8545  -17.9406 O.3       1 UNL1       -0.4828
     14 C         -53.4577   52.1896  -19.2000 C.ar      1 UNL1        0.1389
     15 C         -54.7040   52.8178  -19.2576 C.ar      1 UNL1        0.0225
     16 C         -55.2237   53.1861  -20.4919 C.ar      1 UNL1        0.1238
     17 O         -56.4400   53.7921  -20.5997 O.3       1 UNL1       -0.5065
     18 C         -54.5166   52.9462  -21.6650 C.ar      1 UNL1        0.0222
     19 C         -53.2615   52.3357  -21.6040 C.ar      1 UNL1        0.1343
     20 O         -52.5766   52.1286  -22.7663 O.3       1 UNL1       -0.5058
     21 C         -52.7181   51.9575  -20.3689 C.ar      1 UNL1        0.1007
     22 H         -50.0955   50.4141  -18.7943 H         1 UNL1        0.0385
     23 H         -50.4091   52.1460  -18.5118 H         1 UNL1        0.0385
     24 H         -52.5304   49.8974  -18.3123 H         1 UNL1        0.0789
     25 H         -51.0208   48.5053  -16.8718 H         1 UNL1        0.0623
     26 H         -50.2566   48.0911  -14.5787 H         1 UNL1        0.0655
     27 H         -49.3237   49.9579  -12.5743 H         1 UNL1        0.2923
     28 H         -52.1659   52.3741  -12.9368 H         1 UNL1        0.2923
     29 H         -52.0351   52.5637  -15.8153 H         1 UNL1        0.0659
     30 H         -55.2523   52.9995  -18.3381 H         1 UNL1        0.0691
     31 H         -56.5540   54.1186  -21.5084 H         1 UNL1        0.2921
     32 H         -54.9526   53.2475  -22.6129 H         1 UNL1        0.0691
     33 H         -51.7135   52.5711  -22.7335 H         1 UNL1        0.2922
@<TRIPOS>BOND
     1    1    2 2
     2    2    3 1
     3    3    4 1
     4    4    5 1
     5    5    6 ar
     6    6    7 ar
     7    7    8 ar
     8    8    9 1
     9    8   10 ar
    10   10   11 1
    11   10   12 ar
    12    4   13 1
    13   13   14 1
    14   14   15 ar
    15   15   16 ar
    16   16   17 1
    17   16   18 ar
    18   18   19 ar
    19   19   20 1
    20   19   21 ar
    21   21    2 1
    22   12    5 ar
    23   21   14 ar
    24    3   22 1
    25    3   23 1
    26    4   24 1
    27    6   25 1
    28    7   26 1
    29    9   27 1
    30   11   28 1
    31   12   29 1
    32   15   30 1
    33   17   31 1
    34   18   32 1
    35   20   33 1
@<TRIPOS>SUBSTRUCTURE
1 UNL1 1
@<TRIPOS>COMMENT
Eriodictyol_Iso0
PLANTSmolcadARTstart hb
PLANTSmolcadARTstart HB
LINES
PLANTSmolcadARTstart HBCH
LINES
PLANTSmolcadARTstart HB-CHO
LINES
PLANTSmolcadARTend
PLANTSmolcadARTstart HB_WATER
LINES
PLANTSmolcadARTend

PLANTSmolcadARTend

@<TRIPOS>MOLECULE
Eriodictyol_Iso0_entry_00001_conf_03
33 35 1
SMALL
NO_CHARGES


@<TRIPOS>ATOM
      1 O         -56.4573   52.0748  -16.9439 O.2       1 UNL1       -0.2917
      2 C         -55.3102   51.9750  -17.3637 C.2       1 UNL1        0.1740
      3 C         -54.2076   51.4891  -16.4643 C.3       1 UNL1        0.0520
      4 C         -52.9441   52.2453  -16.8320 C.3       1 UNL1        0.1323
      5 C         -51.7992   51.8584  -15.9127 C.ar      1 UNL1       -0.0033
      6 C         -52.0294   51.7059  -14.5349 C.ar      1 UNL1       -0.0514
      7 C         -50.9943   51.3288  -13.6744 C.ar      1 UNL1       -0.0162
      8 C         -49.7207   51.0972  -14.1872 C.ar      1 UNL1        0.1582
      9 O         -48.6984   50.7283  -13.3590 O.3       1 UNL1       -0.5033
     10 C         -49.4789   51.2386  -15.5525 C.ar      1 UNL1        0.1586
     11 O         -48.2229   51.0047  -16.0384 O.3       1 UNL1       -0.5033
     12 C         -50.5093   51.6132  -16.4148 C.ar      1 UNL1       -0.0099
     13 O         -52.5637   51.9568  -18.1860 O.3       1 UNL1       -0.4828
     14 C         -53.5586   52.2207  -19.0929 C.ar      1 UNL1        0.1389
     15 C         -53.1290   52.4218  -20.4067 C.ar      1 UNL1        0.0225
     16 C         -54.0656   52.7038  -21.3930 C.ar      1 UNL1        0.1238
     17 O         -53.6939   52.9179  -22.6869 O.3       1 UNL1       -0.5065
     18 C         -55.4208   52.7783  -21.0907 C.ar      1 UNL1        0.0222
     19 C         -55.8507   52.5572  -19.7799 C.ar      1 UNL1        0.1343
     20 O         -57.1874   52.6152  -19.5104 O.3       1 UNL1       -0.5058
     21 C         -54.9226   52.2699  -18.7700 C.ar      1 UNL1        0.1007
     22 H         -54.4867   51.6837  -15.4225 H         1 UNL1        0.0385
     23 H         -54.1064   50.4069  -16.6070 H         1 UNL1        0.0385
     24 H         -53.0977   53.3320  -16.7574 H         1 UNL1        0.0789
     25 H         -53.0204   51.8788  -14.1190 H         1 UNL1        0.0623
     26 H         -51.1997   51.2203  -12.6140 H         1 UNL1        0.0655
     27 H         -47.9420   51.3155  -13.5077 H         1 UNL1        0.2923
     28 H         -47.8762   50.1909  -15.6427 H         1 UNL1        0.2923
     29 H         -50.3189   51.7198  -17.4793 H         1 UNL1        0.0659
     30 H         -52.0691   52.3652  -20.6355 H         1 UNL1        0.0691
     31 H         -53.8771   53.8434  -22.9222 H         1 UNL1        0.2921
     32 H         -56.1259   53.0004  -21.8863 H         1 UNL1        0.0691
     33 H         -57.4507   53.5254  -19.3002 H         1 UNL1        0.2922
@<TRIPOS>BOND
     1    1    2 2
     2    2    3 1
     3    3    4 1
     4    4    5 1
     5    5    6 ar
     6    6    7 ar
     7    7    8 ar
     8    8    9 1
     9    8   10 ar
    10   10   11 1
    11   10   12 ar
    12    4   13 1
    13   13   14 1
    14   14   15 ar
    15   15   16 ar
    16   16   17 1
    17   16   18 ar
    18   18   19 ar
    19   19   20 1
    20   19   21 ar
    21   21    2 1
    22   12    5 ar
    23   21   14 ar
    24    3   22 1
    25    3   23 1
    26    4   24 1
    27    6   25 1
    28    7   26 1
    29    9   27 1
    30   11   28 1
    31   12   29 1
    32   15   30 1
    33   17   31 1
    34   18   32 1
    35   20   33 1
@<TRIPOS>SUBSTRUCTURE
1 UNL1 1
@<TRIPOS>COMMENT
Eriodictyol_Iso0
PLANTSmolcadARTstart hb
PLANTSmolcadARTstart HB
LINES
PLANTSmolcadARTstart HBCH
LINES
PLANTSmolcadARTstart HB-CHO
LINES
PLANTSmolcadARTend
PLANTSmolcadARTstart HB_WATER
LINES
PLANTSmolcadARTend

PLANTSmolcadARTend

@<TRIPOS>MOLECULE
Eriodictyol_Iso0_entry_00001_conf_04
33 35 1
SMALL
NO_CHARGES


@<TRIPOS>ATOM
      1 O         -56.2997   53.3571  -16.2170 O.2       1 UNL1       -0.2917
      2 C         -55.3491   52.7800  -16.7320 C.2       1 UNL1        0.1740
      3 C         -54.2752   52.1656  -15.8776 C.3       1 UNL1        0.0520
      4 C         -52.9522   52.3416  -16.6006 C.3       1 UNL1        0.1323
      5 C         -51.8054   51.8076  -15.7607 C.ar      1 UNL1       -0.0033
      6 C         -52.0322   51.4304  -14.4262 C.ar      1 UNL1       -0.0514
      7 C         -50.9953   50.9160  -13.6425 C.ar      1 UNL1       -0.0162
      8 C         -49.7234   50.7710  -14.1900 C.ar      1 UNL1        0.1582
      9 O         -48.6993   50.2699  -13.4368 O.3       1 UNL1       -0.5033
     10 C         -49.4850   51.1351  -15.5141 C.ar      1 UNL1        0.1586
     11 O         -48.2306   50.9834  -16.0354 O.3       1 UNL1       -0.5033
     12 C         -50.5172   51.6474  -16.3000 C.ar      1 UNL1       -0.0099
     13 O         -52.9690   51.6411  -17.8536 O.3       1 UNL1       -0.4828
     14 C         -54.0098   52.0146  -18.6656 C.ar      1 UNL1        0.1389
     15 C         -53.8277   51.7532  -20.0257 C.ar      1 UNL1        0.0225
     16 C         -54.8256   52.1053  -20.9255 C.ar      1 UNL1        0.1238
     17 O         -54.6894   51.8800  -22.2630 O.3       1 UNL1       -0.5065
     18 C         -56.0025   52.7035  -20.4890 C.ar      1 UNL1        0.0222
     19 C         -56.1914   52.9461  -19.1262 C.ar      1 UNL1        0.1343
     20 O         -57.3628   53.5156  -18.7184 O.3       1 UNL1       -0.5058
     21 C         -55.1980   52.5975  -18.2013 C.ar      1 UNL1        0.1007
     22 H         -54.2576   52.6749  -14.9075 H         1 UNL1        0.0385
     23 H         -54.5304   51.1114  -15.7190 H         1 UNL1        0.0385
     24 H         -52.7589   53.4023  -16.8187 H         1 UNL1        0.0789
     25 H         -53.0219   51.5333  -13.9847 H         1 UNL1        0.0623
     26 H         -51.1980   50.6344  -12.6139 H         1 UNL1        0.0655
     27 H         -48.6125   49.3205  -13.6108 H         1 UNL1        0.2923
     28 H         -48.0785   51.6708  -16.7013 H         1 UNL1        0.2923
     29 H         -50.3295   51.9277  -17.3330 H         1 UNL1        0.0659
     30 H         -52.9052   51.2886  -20.3603 H         1 UNL1        0.0691
     31 H         -54.7815   52.7227  -22.7392 H         1 UNL1        0.2921
     32 H         -56.7619   52.9654  -21.2198 H         1 UNL1        0.0691
     33 H         -57.6284   53.1611  -17.8549 H         1 UNL1        0.2922
@<TRIPOS>BOND
     1    1    2 2
     2    2    3 1
     3    3    4 1
     4    4    5 1
     5    5    6 ar
     6    6    7 ar
     7    7    8 ar
     8    8    9 1
     9    8   10 ar
    10   10   11 1
    11   10   12 ar
    12    4   13 1
    13   13   14 1
    14   14   15 ar
    15   15   16 ar
    16   16   17 1
    17   16   18 ar
    18   18   19 ar
    19   19   20 1
    20   19   21 ar
    21   21    2 1
    22   12    5 ar
    23   21   14 ar
    24    3   22 1
    25    3   23 1
    26    4   24 1
    27    6   25 1
    28    7   26 1
    29    9   27 1
    30   11   28 1
    31   12   29 1
    32   15   30 1
    33   17   31 1
    34   18   32 1
    35   20   33 1
@<TRIPOS>SUBSTRUCTURE
1 UNL1 1
@<TRIPOS>COMMENT
Eriodictyol_Iso0
PLANTSmolcadARTstart hb
PLANTSmolcadARTstart HB
LINES
PLANTSmolcadARTstart HBCH
LINES
PLANTSmolcadARTstart HB-CHO
LINES
PLANTSmolcadARTend
PLANTSmolcadARTstart HB_WATER
LINES
PLANTSmolcadARTend

PLANTSmolcadARTend

@<TRIPOS>MOLECULE
Eriodictyol_Iso0_entry_00001_conf_05
33 35 1
SMALL
NO_CHARGES


@<TRIPOS>ATOM
      1 O         -51.3459   48.3623  -16.3503 O.2       1 UNL1       -0.2917
      2 C         -51.4713   49.5378  -16.6734 C.2       1 UNL1        0.1740
      3 C         -52.3999   49.9279  -17.7897 C.3       1 UNL1        0.0520
      4 C         -51.7679   51.0916  -18.5313 C.3       1 UNL1        0.1323
      5 C         -52.6180   51.4951  -19.7230 C.ar      1 UNL1       -0.0033
      6 C         -52.2466   51.0903  -21.0164 C.ar      1 UNL1       -0.0514
      7 C         -53.0271   51.4323  -22.1245 C.ar      1 UNL1       -0.0162
      8 C         -54.1886   52.1791  -21.9462 C.ar      1 UNL1        0.1582
      9 O         -54.9620   52.5216  -23.0193 O.3       1 UNL1       -0.5033
     10 C         -54.5728   52.5824  -20.6685 C.ar      1 UNL1        0.1586
     11 O         -55.7175   53.3129  -20.5123 O.3       1 UNL1       -0.5033
     12 C         -53.7977   52.2420  -19.5600 C.ar      1 UNL1       -0.0099
     13 O         -51.6298   52.2248  -17.6608 O.3       1 UNL1       -0.4828
     14 C         -50.9210   51.9445  -16.5200 C.ar      1 UNL1        0.1389
     15 C         -50.3505   53.0509  -15.8863 C.ar      1 UNL1        0.0225
     16 C         -49.6067   52.8628  -14.7283 C.ar      1 UNL1        0.1238
     17 O         -49.0221   53.9099  -14.0803 O.3       1 UNL1       -0.5065
     18 C         -49.4324   51.5927  -14.1898 C.ar      1 UNL1        0.0222
     19 C         -50.0203   50.4897  -14.8139 C.ar      1 UNL1        0.1343
     20 O         -49.8527   49.2553  -14.2562 O.3       1 UNL1       -0.5058
     21 C         -50.7757   50.6574  -15.9822 C.ar      1 UNL1        0.1007
     22 H         -52.5336   49.0692  -18.4575 H         1 UNL1        0.0385
     23 H         -53.3694   50.1872  -17.3487 H         1 UNL1        0.0385
     24 H         -50.7628   50.8304  -18.8940 H         1 UNL1        0.0789
     25 H         -51.3439   50.5022  -21.1721 H         1 UNL1        0.0623
     26 H         -52.7156   51.1080  -23.1125 H         1 UNL1        0.0655
     27 H         -55.6010   53.1973  -22.7471 H         1 UNL1        0.2923
     28 H         -55.4873   54.2512  -20.4371 H         1 UNL1        0.2923
     29 H         -54.1011   52.5551  -18.5646 H         1 UNL1        0.0659
     30 H         -50.4879   54.0395  -16.3137 H         1 UNL1        0.0691
     31 H         -48.7863   53.6348  -13.1780 H         1 UNL1        0.2921
     32 H         -48.8451   51.4819  -13.2830 H         1 UNL1        0.0691
     33 H         -49.9133   48.5659  -14.9366 H         1 UNL1        0.2922
@<TRIPOS>BOND
     1    1    2 2
     2    2    3 1
     3    3    4 1
     4    4    5 1
     5    5    6 ar
     6    6    7 ar
     7    7    8 ar
     8    8    9 1
     9    8   10 ar
    10   10   11 1
    11   10   12 ar
    12    4   13 1
    13   13   14 1
    14   14   15 ar
    15   15   16 ar
    16   16   17 1
    17   16   18 ar
    18   18   19 ar
    19   19   20 1
    20   19   21 ar
    21   21    2 1
    22   12    5 ar
    23   21   14 ar
    24    3   22 1
    25    3   23 1
    26    4   24 1
    27    6   25 1
    28    7   26 1
    29    9   27 1
    30   11   28 1
    31   12   29 1
    32   15   30 1
    33   17   31 1
    34   18   32 1
    35   20   33 1
@<TRIPOS>SUBSTRUCTURE
1 UNL1 1
@<TRIPOS>COMMENT
Eriodictyol_Iso0
PLANTSmolcadARTstart hb
PLANTSmolcadARTstart HB
LINES
PLANTSmolcadARTstart HBCH
LINES
PLANTSmolcadARTstart HB-CHO
LINES
PLANTSmolcadARTend
PLANTSmolcadARTstart HB_WATER
LINES
PLANTSmolcadARTend

PLANTSmolcadARTend

@<TRIPOS>MOLECULE
Eriodictyol_Iso0_entry_00001_conf_06
33 35 1
SMALL
NO_CHARGES


@<TRIPOS>ATOM
      1 O         -54.2588   50.3535  -14.4221 O.2       1 UNL1       -0.2917
      2 C         -53.5802   50.9124  -15.2759 C.2       1 UNL1        0.1740
      3 C         -54.2188   51.4553  -16.5242 C.3       1 UNL1        0.0520
      4 C         -53.2413   51.2556  -17.6679 C.3       1 UNL1        0.1323
      5 C         -53.8491   51.7157  -18.9811 C.ar      1 UNL1       -0.0033
      6 C         -55.1822   51.3928  -19.2862 C.ar      1 UNL1       -0.0514
      7 C         -55.7677   51.8253  -20.4796 C.ar      1 UNL1       -0.0162
      8 C         -55.0242   52.5886  -21.3757 C.ar      1 UNL1        0.1582
      9 O         -55.5821   53.0187  -22.5465 O.3       1 UNL1       -0.5033
     10 C         -53.7027   52.9219  -21.0838 C.ar      1 UNL1        0.1586
     11 O         -52.9889   53.6742  -21.9743 O.3       1 UNL1       -0.5033
     12 C         -53.1152   52.4937  -19.8934 C.ar      1 UNL1       -0.0099
     13 O         -52.0366   52.0003  -17.4332 O.3       1 UNL1       -0.4828
     14 C         -51.4393   51.6954  -16.2364 C.ar      1 UNL1        0.1389
     15 C         -50.0780   51.9980  -16.1559 C.ar      1 UNL1        0.0225
     16 C         -49.3867   51.7159  -14.9846 C.ar      1 UNL1        0.1238
     17 O         -48.0557   51.9834  -14.8620 O.3       1 UNL1       -0.5065
     18 C         -50.0333   51.1472  -13.8928 C.ar      1 UNL1        0.0222
     19 C         -51.3992   50.8635  -13.9681 C.ar      1 UNL1        0.1343
     20 O         -52.0173   50.3243  -12.8772 O.3       1 UNL1       -0.5058
     21 C         -52.1159   51.1414  -15.1398 C.ar      1 UNL1        0.1007
     22 H         -55.1516   50.9114  -16.7117 H         1 UNL1        0.0385
     23 H         -54.4542   52.5120  -16.3521 H         1 UNL1        0.0385
     24 H         -52.9600   50.1968  -17.7673 H         1 UNL1        0.0789
     25 H         -55.7783   50.8006  -18.5940 H         1 UNL1        0.0623
     26 H         -56.7988   51.5596  -20.6908 H         1 UNL1        0.0655
     27 H         -55.5474   53.9866  -22.5778 H         1 UNL1        0.2923
     28 H         -52.0491   53.6351  -21.7410 H         1 UNL1        0.2923
     29 H         -52.0857   52.7574  -19.6668 H         1 UNL1        0.0659
     30 H         -49.5785   52.4392  -17.0130 H         1 UNL1        0.0691
     31 H         -47.7027   51.5002  -14.0956 H         1 UNL1        0.2921
     32 H         -49.4623   50.9402  -12.9925 H         1 UNL1        0.0691
     33 H         -52.1832   51.0090  -12.2098 H         1 UNL1        0.2922
@<TRIPOS>BOND
     1    1    2 2
     2    2    3 1
     3    3    4 1
     4    4    5 1
     5    5    6 ar
     6    6    7 ar
     7    7    8 ar
     8    8    9 1
     9    8   10 ar
    10   10   11 1
    11   10   12 ar
    12    4   13 1
    13   13   14 1
    14   14   15 ar
    15   15   16 ar
    16   16   17 1
    17   16   18 ar
    18   18   19 ar
    19   19   20 1
    20   19   21 ar
    21   21    2 1
    22   12    5 ar
    23   21   14 ar
    24    3   22 1
    25    3   23 1
    26    4   24 1
    27    6   25 1
    28    7   26 1
    29    9   27 1
    30   11   28 1
    31   12   29 1
    32   15   30 1
    33   17   31 1
    34   18   32 1
    35   20   33 1
@<TRIPOS>SUBSTRUCTURE
1 UNL1 1
@<TRIPOS>COMMENT
Eriodictyol_Iso0
PLANTSmolcadARTstart hb
PLANTSmolcadARTstart HB
LINES
PLANTSmolcadARTstart HBCH
LINES
PLANTSmolcadARTstart HB-CHO
LINES
PLANTSmolcadARTend
PLANTSmolcadARTstart HB_WATER
LINES
PLANTSmolcadARTend

PLANTSmolcadARTend

@<TRIPOS>MOLECULE
Eriodictyol_Iso0_entry_00001_conf_07
33 35 1
SMALL
NO_CHARGES


@<TRIPOS>ATOM
      1 O         -56.2081   52.4910  -15.7982 O.2       1 UNL1       -0.2917
      2 C         -55.0761   52.2858  -16.2207 C.2       1 UNL1        0.1740
      3 C         -54.7077   52.6593  -17.6298 C.3       1 UNL1        0.0520
      4 C         -53.7414   51.6101  -18.1485 C.3       1 UNL1        0.1323
      5 C         -53.3798   51.8820  -19.5980 C.ar      1 UNL1       -0.0033
      6 C         -54.2795   52.5755  -20.4251 C.ar      1 UNL1       -0.0514
      7 C         -53.9569   52.8554  -21.7561 C.ar      1 UNL1       -0.0162
      8 C         -52.7286   52.4468  -22.2689 C.ar      1 UNL1        0.1582
      9 O         -52.3987   52.7126  -23.5679 O.3       1 UNL1       -0.5033
     10 C         -51.8236   51.7635  -21.4585 C.ar      1 UNL1        0.1586
     11 O         -50.6214   51.3723  -21.9783 O.3       1 UNL1       -0.5033
     12 C         -52.1409   51.4835  -20.1294 C.ar      1 UNL1       -0.0099
     13 O         -52.5370   51.6083  -17.3671 O.3       1 UNL1       -0.4828
     14 C         -52.7649   51.4259  -16.0266 C.ar      1 UNL1        0.1389
     15 C         -51.6746   50.9465  -15.2968 C.ar      1 UNL1        0.0225
     16 C         -51.8144   50.7226  -13.9331 C.ar      1 UNL1        0.1238
     17 O         -50.7824   50.2457  -13.1809 O.3       1 UNL1       -0.5065
     18 C         -53.0189   50.9782  -13.2871 C.ar      1 UNL1        0.0222
     19 C         -54.1024   51.4765  -14.0147 C.ar      1 UNL1        0.1343
     20 O         -55.2685   51.7392  -13.3560 O.3       1 UNL1       -0.5058
     21 C         -53.9824   51.7108  -15.3912 C.ar      1 UNL1        0.1007
     22 H         -55.6174   52.6843  -18.2404 H         1 UNL1        0.0385
     23 H         -54.2675   53.6631  -17.6099 H         1 UNL1        0.0385
     24 H         -54.1785   50.6029  -18.0824 H         1 UNL1        0.0789
     25 H         -55.2419   52.9057  -20.0381 H         1 UNL1        0.0623
     26 H         -54.6716   53.3909  -22.3733 H         1 UNL1        0.0655
     27 H         -51.5222   52.3438  -23.7545 H         1 UNL1        0.2923
     28 H         -50.4680   51.8427  -22.8115 H         1 UNL1        0.2923
     29 H         -51.4323   50.9534  -19.4989 H         1 UNL1        0.0659
     30 H         -50.7378   50.7461  -15.8079 H         1 UNL1        0.0691
     31 H         -50.3277   49.5415  -13.6736 H         1 UNL1        0.2921
     32 H         -53.0931   50.7922  -12.2197 H         1 UNL1        0.0691
     33 H         -56.0286   51.4508  -13.8861 H         1 UNL1        0.2922
@<TRIPOS>BOND
     1    1    2 2
     2    2    3 1
     3    3    4 1
     4    4    5 1
     5    5    6 ar
     6    6    7 ar
     7    7    8 ar
     8    8    9 1
     9    8   10 ar
    10   10   11 1
    11   10   12 ar
    12    4   13 1
    13   13   14 1
    14   14   15 ar
    15   15   16 ar
    16   16   17 1
    17   16   18 ar
    18   18   19 ar
    19   19   20 1
    20   19   21 ar
    21   21    2 1
    22   12    5 ar
    23   21   14 ar
    24    3   22 1
    25    3   23 1
    26    4   24 1
    27    6   25 1
    28    7   26 1
    29    9   27 1
    30   11   28 1
    31   12   29 1
    32   15   30 1
    33   17   31 1
    34   18   32 1
    35   20   33 1
@<TRIPOS>SUBSTRUCTURE
1 UNL1 1
@<TRIPOS>COMMENT
Eriodictyol_Iso0
PLANTSmolcadARTstart hb
PLANTSmolcadARTstart HB
LINES
PLANTSmolcadARTstart HBCH
LINES
PLANTSmolcadARTstart HB-CHO
LINES
PLANTSmolcadARTend
PLANTSmolcadARTstart HB_WATER
LINES
PLANTSmolcadARTend

PLANTSmolcadARTend

@<TRIPOS>MOLECULE
Eriodictyol_Iso0_entry_00001_conf_08
33 35 1
SMALL
NO_CHARGES


@<TRIPOS>ATOM
      1 O         -55.8036   52.3347  -15.5596 O.2       1 UNL1       -0.2917
      2 C         -54.8910   52.1870  -16.3642 C.2       1 UNL1        0.1740
      3 C         -53.5544   51.6649  -15.9153 C.3       1 UNL1        0.0520
      4 C         -52.4855   52.3684  -16.7315 C.3       1 UNL1        0.1323
      5 C         -51.0989   51.9438  -16.2814 C.ar      1 UNL1       -0.0033
      6 C         -50.7766   51.9449  -14.9136 C.ar      1 UNL1       -0.0514
      7 C         -49.5132   51.5368  -14.4763 C.ar      1 UNL1       -0.0162
      8 C         -48.5631   51.1200  -15.4050 C.ar      1 UNL1        0.1582
      9 O         -47.3236   50.7183  -14.9934 O.3       1 UNL1       -0.5033
     10 C         -48.8706   51.1077  -16.7644 C.ar      1 UNL1        0.1586
     11 O         -47.9263   50.6930  -17.6614 O.3       1 UNL1       -0.5033
     12 C         -50.1306   51.5127  -17.2048 C.ar      1 UNL1       -0.0099
     13 O         -52.6321   52.0553  -18.1249 O.3       1 UNL1       -0.4828
     14 C         -53.8788   52.3513  -18.6152 C.ar      1 UNL1        0.1389
     15 C         -53.9485   52.5258  -19.9994 C.ar      1 UNL1        0.0225
     16 C         -55.1689   52.8369  -20.5851 C.ar      1 UNL1        0.1238
     17 O         -55.2849   53.0268  -21.9300 O.3       1 UNL1       -0.5065
     18 C         -56.3188   52.9666  -19.8141 C.ar      1 UNL1        0.0222
     19 C         -56.2512   52.7721  -18.4323 C.ar      1 UNL1        0.1343
     20 O         -57.3963   52.8844  -17.6982 O.3       1 UNL1       -0.5058
     21 C         -55.0302   52.4562  -17.8214 C.ar      1 UNL1        0.1007
     22 H         -53.4298   51.8780  -14.8475 H         1 UNL1        0.0385
     23 H         -53.5484   50.5786  -16.0622 H         1 UNL1        0.0385
     24 H         -52.5648   53.4608  -16.6292 H         1 UNL1        0.0789
     25 H         -51.5097   52.2636  -14.1747 H         1 UNL1        0.0623
     26 H         -49.2904   51.5495  -13.4140 H         1 UNL1        0.0655
     27 H         -46.7218   50.7179  -15.7528 H         1 UNL1        0.2923
     28 H         -48.3589   50.4805  -18.5021 H         1 UNL1        0.2923
     29 H         -50.3689   51.4994  -18.2649 H         1 UNL1        0.0659
     30 H         -53.0463   52.4261  -20.5953 H         1 UNL1        0.0691
     31 H         -54.8337   53.8524  -22.1754 H         1 UNL1        0.2921
     32 H         -57.2565   53.2102  -20.3048 H         1 UNL1        0.0691
     33 H         -57.2446   53.4417  -16.9183 H         1 UNL1        0.2922
@<TRIPOS>BOND
     1    1    2 2
     2    2    3 1
     3    3    4 1
     4    4    5 1
     5    5    6 ar
     6    6    7 ar
     7    7    8 ar
     8    8    9 1
     9    8   10 ar
    10   10   11 1
    11   10   12 ar
    12    4   13 1
    13   13   14 1
    14   14   15 ar
    15   15   16 ar
    16   16   17 1
    17   16   18 ar
    18   18   19 ar
    19   19   20 1
    20   19   21 ar
    21   21    2 1
    22   12    5 ar
    23   21   14 ar
    24    3   22 1
    25    3   23 1
    26    4   24 1
    27    6   25 1
    28    7   26 1
    29    9   27 1
    30   11   28 1
    31   12   29 1
    32   15   30 1
    33   17   31 1
    34   18   32 1
    35   20   33 1
@<TRIPOS>SUBSTRUCTURE
1 UNL1 1
@<TRIPOS>COMMENT
Eriodictyol_Iso0
PLANTSmolcadARTstart hb
PLANTSmolcadARTstart HB
LINES
PLANTSmolcadARTstart HBCH
LINES
PLANTSmolcadARTstart HB-CHO
LINES
PLANTSmolcadARTend
PLANTSmolcadARTstart HB_WATER
LINES
PLANTSmolcadARTend

PLANTSmolcadARTend

@<TRIPOS>MOLECULE
Eriodictyol_Iso0_entry_00001_conf_09
33 35 1
SMALL
NO_CHARGES


@<TRIPOS>ATOM
      1 O         -56.2219   50.9390  -15.9586 O.2       1 UNL1       -0.2917
      2 C         -55.2091   51.1234  -16.6236 C.2       1 UNL1        0.1740
      3 C         -53.8490   50.9209  -16.0154 C.3       1 UNL1        0.0520
      4 C         -52.9183   51.9638  -16.6068 C.3       1 UNL1        0.1323
      5 C         -51.5373   51.8676  -15.9828 C.ar      1 UNL1       -0.0033
      6 C         -51.2908   52.4636  -14.7343 C.ar      1 UNL1       -0.0514
      7 C         -50.0330   52.3680  -14.1322 C.ar      1 UNL1       -0.0162
      8 C         -49.0123   51.6711  -14.7734 C.ar      1 UNL1        0.1582
      9 O         -47.7772   51.5689  -14.1980 O.3       1 UNL1       -0.5033
     10 C         -49.2439   51.0696  -16.0093 C.ar      1 UNL1        0.1586
     11 O         -48.2308   50.3873  -16.6229 O.3       1 UNL1       -0.5033
     12 C         -50.4980   51.1612  -16.6128 C.ar      1 UNL1       -0.0099
     13 O         -52.7954   51.7788  -18.0252 O.3       1 UNL1       -0.4828
     14 C         -54.0027   51.7924  -18.6768 C.ar      1 UNL1        0.1389
     15 C         -53.9408   52.0943  -20.0392 C.ar      1 UNL1        0.0225
     16 C         -55.1151   52.1397  -20.7798 C.ar      1 UNL1        0.1238
     17 O         -55.1066   52.4400  -22.1094 O.3       1 UNL1       -0.5065
     18 C         -56.3450   51.8800  -20.1853 C.ar      1 UNL1        0.0222
     19 C         -56.4030   51.5587  -18.8269 C.ar      1 UNL1        0.1343
     20 O         -57.6189   51.2876  -18.2692 O.3       1 UNL1       -0.5058
     21 C         -55.2302   51.5060  -18.0617 C.ar      1 UNL1        0.1007
     22 H         -53.9242   51.0400  -14.9285 H         1 UNL1        0.0385
     23 H         -53.5279   49.8966  -16.2375 H         1 UNL1        0.0385
     24 H         -53.3054   52.9797  -16.4393 H         1 UNL1        0.0789
     25 H         -52.0795   53.0081  -14.2180 H         1 UNL1        0.0623
     26 H         -49.8696   52.8396  -13.1682 H         1 UNL1        0.0655
     27 H         -47.1661   51.1595  -14.8288 H         1 UNL1        0.2923
     28 H         -47.6449   51.0198  -17.0655 H         1 UNL1        0.2923
     29 H         -50.6769   50.6888  -17.5749 H         1 UNL1        0.0659
     30 H         -52.9776   52.2990  -20.4966 H         1 UNL1        0.0691
     31 H         -55.6022   53.2640  -22.2533 H         1 UNL1        0.2921
     32 H         -57.2433   51.9238  -20.7940 H         1 UNL1        0.0691
     33 H         -58.0600   50.5706  -18.7522 H         1 UNL1        0.2922
@<TRIPOS>BOND
     1    1    2 2
     2    2    3 1
     3    3    4 1
     4    4    5 1
     5    5    6 ar
     6    6    7 ar
     7    7    8 ar
     8    8    9 1
     9    8   10 ar
    10   10   11 1
    11   10   12 ar
    12    4   13 1
    13   13   14 1
    14   14   15 ar
    15   15   16 ar
    16   16   17 1
    17   16   18 ar
    18   18   19 ar
    19   19   20 1
    20   19   21 ar
    21   21    2 1
    22   12    5 ar
    23   21   14 ar
    24    3   22 1
    25    3   23 1
    26    4   24 1
    27    6   25 1
    28    7   26 1
    29    9   27 1
    30   11   28 1
    31   12   29 1
    32   15   30 1
    33   17   31 1
    34   18   32 1
    35   20   33 1
@<TRIPOS>SUBSTRUCTURE
1 UNL1 1
@<TRIPOS>COMMENT
Eriodictyol_Iso0
PLANTSmolcadARTstart hb
PLANTSmolcadARTstart HB
LINES
PLANTSmolcadARTstart HBCH
LINES
PLANTSmolcadARTstart HB-CHO
LINES
PLANTSmolcadARTend
PLANTSmolcadARTstart HB_WATER
LINES
PLANTSmolcadARTend

PLANTSmolcadARTend

@<TRIPOS>MOLECULE
Eriodictyol_Iso0_entry_00001_conf_10
33 35 1
SMALL
NO_CHARGES


@<TRIPOS>ATOM
      1 O         -54.5142   51.0709  -14.0600 O.2       1 UNL1       -0.2917
      2 C         -53.8162   51.4498  -14.9934 C.2       1 UNL1        0.1740
      3 C         -54.4235   51.7119  -16.3436 C.3       1 UNL1        0.0520
      4 C         -53.4120   51.2927  -17.3947 C.3       1 UNL1        0.1323
      5 C         -53.9859   51.4610  -18.7904 C.ar      1 UNL1       -0.0033
      6 C         -55.3720   51.6136  -18.9631 C.ar      1 UNL1       -0.0514
      7 C         -55.9186   51.7919  -20.2373 C.ar      1 UNL1       -0.0162
      8 C         -55.0810   51.8230  -21.3490 C.ar      1 UNL1        0.1582
      9 O         -55.5999   51.9962  -22.6012 O.3       1 UNL1       -0.5033
     10 C         -53.7034   51.6791  -21.1925 C.ar      1 UNL1        0.1586
     11 O         -52.8964   51.7148  -22.2952 O.3       1 UNL1       -0.5033
     12 C         -53.1539   51.5026  -19.9228 C.ar      1 UNL1       -0.0099
     13 O         -52.2210   52.0873  -17.2888 O.3       1 UNL1       -0.4828
     14 C         -51.6556   52.0465  -16.0394 C.ar      1 UNL1        0.1389
     15 C         -50.2998   52.3788  -15.9881 C.ar      1 UNL1        0.0225
     16 C         -49.6399   52.3565  -14.7660 C.ar      1 UNL1        0.1238
     17 O         -48.3153   52.6628  -14.6670 O.3       1 UNL1       -0.5065
     18 C         -50.3126   52.0180  -13.5971 C.ar      1 UNL1        0.0222
     19 C         -51.6732   51.7053  -13.6474 C.ar      1 UNL1        0.1343
     20 O         -52.3176   51.3958  -12.4847 O.3       1 UNL1       -0.5058
     21 C         -52.3584   51.7230  -14.8697 C.ar      1 UNL1        0.1007
     22 H         -55.3458   51.1275  -16.4382 H         1 UNL1        0.0385
     23 H         -54.6728   52.7778  -16.4016 H         1 UNL1        0.0385
     24 H         -53.1188   50.2406  -17.2640 H         1 UNL1        0.0789
     25 H         -56.0399   51.5961  -18.1037 H         1 UNL1        0.0623
     26 H         -56.9931   51.9053  -20.3419 H         1 UNL1        0.0655
     27 H         -54.8790   51.9796  -23.2485 H         1 UNL1        0.2923
     28 H         -53.4307   51.5428  -23.0851 H         1 UNL1        0.2923
     29 H         -52.0794   51.3937  -19.8031 H         1 UNL1        0.0659
     30 H         -49.7797   52.6393  -16.9049 H         1 UNL1        0.0691
     31 H         -48.0555   52.6548  -13.7301 H         1 UNL1        0.2921
     32 H         -49.7658   52.0110  -12.6587 H         1 UNL1        0.0691
     33 H         -52.7672   50.5395  -12.5649 H         1 UNL1        0.2922
@<TRIPOS>BOND
     1    1    2 2
     2    2    3 1
     3    3    4 1
     4    4    5 1
     5    5    6 ar
     6    6    7 ar
     7    7    8 ar
     8    8    9 1
     9    8   10 ar
    10   10   11 1
    11   10   12 ar
    12    4   13 1
    13   13   14 1
    14   14   15 ar
    15   15   16 ar
    16   16   17 1
    17   16   18 ar
    18   18   19 ar
    19   19   20 1
    20   19   21 ar
    21   21    2 1
    22   12    5 ar
    23   21   14 ar
    24    3   22 1
    25    3   23 1
    26    4   24 1
    27    6   25 1
    28    7   26 1
    29    9   27 1
    30   11   28 1
    31   12   29 1
    32   15   30 1
    33   17   31 1
    34   18   32 1
    35   20   33 1
@<TRIPOS>SUBSTRUCTURE
1 UNL1 1
@<TRIPOS>COMMENT
Eriodictyol_Iso0
PLANTSmolcadARTstart hb
PLANTSmolcadARTstart HB
LINES
PLANTSmolcadARTstart HBCH
LINES
PLANTSmolcadARTstart HB-CHO
LINES
PLANTSmolcadARTend
PLANTSmolcadARTstart HB_WATER
LINES
PLANTSmolcadARTend

PLANTSmolcadARTend

