@<TRIPOS>MOLECULE
Fisetin_Iso0_entry_00001_conf_01
31 33 1
SMALL
NO_CHARGES


@<TRIPOS>ATOM
      1 O         -51.2552   51.0073  -21.7144 O.2       1 UNL1       -0.2831
      2 C         -51.7208   51.3215  -20.6237 C.ar      1 UNL1        0.2343
      3 C         -50.9304   51.0885  -19.3904 C.ar      1 UNL1        0.2081
      4 O         -49.6873   50.5019  -19.5495 O.3       1 UNL1       -0.5007
      5 C         -51.4612   51.4387  -18.2038 C.ar      1 UNL1        0.1807
      6 C         -50.7686   51.2361  -16.9113 C.ar      1 UNL1        0.0247
      7 C         -49.4914   50.6427  -16.8928 C.ar      1 UNL1       -0.0473
      8 C         -48.8203   50.4152  -15.6880 C.ar      1 UNL1       -0.0159
      9 C         -49.4289   50.7776  -14.4979 C.ar      1 UNL1        0.1583
     10 O         -48.7760   50.5577  -13.3196 O.3       1 UNL1       -0.5033
     11 C         -50.6927   51.3594  -14.4947 C.ar      1 UNL1        0.1589
     12 O         -51.2351   51.6940  -13.2837 O.3       1 UNL1       -0.5033
     13 C         -51.3697   51.5853  -15.6898 C.ar      1 UNL1       -0.0057
     14 O         -52.7226   52.0055  -18.0574 O.2       1 UNL1       -0.4508
     15 C         -53.4783   52.2406  -19.1767 C.ar      1 UNL1        0.1430
     16 C         -54.7330   52.8175  -18.9902 C.ar      1 UNL1        0.0229
     17 C         -55.5401   53.0748  -20.0951 C.ar      1 UNL1        0.1204
     18 O         -56.7598   53.6395  -19.8684 O.3       1 UNL1       -0.5066
     19 C         -55.1144   52.7650  -21.3853 C.ar      1 UNL1       -0.0193
     20 C         -53.8572   52.1870  -21.5712 C.ar      1 UNL1       -0.0438
     21 C         -53.0455   51.9283  -20.4616 C.ar      1 UNL1        0.0679
     22 H         -49.8783   49.5895  -19.8570 H         1 UNL1        0.2924
     23 H         -49.0047   50.3558  -17.8229 H         1 UNL1        0.0626
     24 H         -47.8347   49.9606  -15.6812 H         1 UNL1        0.0655
     25 H         -48.0233   49.9823  -13.5622 H         1 UNL1        0.2923
     26 H         -52.0186   52.2469  -13.4490 H         1 UNL1        0.2923
     27 H         -52.3607   52.0287  -15.6813 H         1 UNL1        0.0662
     28 H         -55.0822   53.0665  -17.9919 H         1 UNL1        0.0691
     29 H         -56.6963   54.2386  -19.1060 H         1 UNL1        0.2921
     30 H         -55.7415   52.9639  -22.2494 H         1 UNL1        0.0654
     31 H         -53.5134   51.9400  -22.5734 H         1 UNL1        0.0627
@<TRIPOS>BOND
     1    1    2 2
     2    2    3 ar
     3    3    4 1
     4    3    5 ar
     5    5    6 1
     6    6    7 ar
     7    7    8 ar
     8    8    9 ar
     9    9   10 1
    10    9   11 ar
    11   11   12 1
    12   11   13 ar
    13    5   14 ar
    14   14   15 ar
    15   15   16 ar
    16   16   17 ar
    17   17   18 1
    18   17   19 ar
    19   19   20 ar
    20   20   21 ar
    21   21    2 ar
    22   13    6 ar
    23   21   15 ar
    24    4   22 1
    25    7   23 1
    26    8   24 1
    27   10   25 1
    28   12   26 1
    29   13   27 1
    30   16   28 1
    31   18   29 1
    32   19   30 1
    33   20   31 1
@<TRIPOS>SUBSTRUCTURE
1 UNL1 1
@<TRIPOS>COMMENT
Fisetin_Iso0
PLANTSmolcadARTstart hb
PLANTSmolcadARTstart HB
LINES
-52.0186 52.2469 -13.449 -52.899 54.348 -13.871 0 255 0 5
PLANTSmolcadARTstart HBCH
LINES
PLANTSmolcadARTstart HB-CHO
LINES
PLANTSmolcadARTend
PLANTSmolcadARTstart HB_WATER
LINES
PLANTSmolcadARTend

PLANTSmolcadARTend

@<TRIPOS>MOLECULE
Fisetin_Iso0_entry_00001_conf_02
31 33 1
SMALL
NO_CHARGES


@<TRIPOS>ATOM
      1 O         -56.2022   52.1218  -16.2772 O.2       1 UNL1       -0.2831
      2 C         -55.1294   52.1350  -16.8724 C.ar      1 UNL1        0.2343
      3 C         -53.8660   51.9482  -16.1183 C.ar      1 UNL1        0.2081
      4 O         -53.9774   51.7797  -14.7494 O.3       1 UNL1       -0.5007
      5 C         -52.7000   51.9683  -16.7908 C.ar      1 UNL1        0.1807
      6 C         -51.3812   51.8095  -16.1374 C.ar      1 UNL1        0.0247
      7 C         -51.2551   52.0586  -14.7569 C.ar      1 UNL1       -0.0473
      8 C         -50.0197   51.9412  -14.1138 C.ar      1 UNL1       -0.0159
      9 C         -48.9062   51.5783  -14.8528 C.ar      1 UNL1        0.1583
     10 O         -47.6983   51.4619  -14.2277 O.3       1 UNL1       -0.5033
     11 C         -49.0088   51.3339  -16.2187 C.ar      1 UNL1        0.1589
     12 O         -47.8695   50.9783  -16.8879 O.3       1 UNL1       -0.5033
     13 C         -50.2345   51.4529  -16.8676 C.ar      1 UNL1       -0.0057
     14 O         -52.6021   52.1629  -18.1643 O.2       1 UNL1       -0.4508
     15 C         -53.7502   52.3327  -18.8938 C.ar      1 UNL1        0.1430
     16 C         -53.6119   52.5163  -20.2682 C.ar      1 UNL1        0.0229
     17 C         -54.7476   52.6951  -21.0535 C.ar      1 UNL1        0.1204
     18 O         -54.5678   52.8716  -22.3930 O.3       1 UNL1       -0.5066
     19 C         -56.0212   52.6937  -20.4881 C.ar      1 UNL1       -0.0193
     20 C         -56.1589   52.5097  -19.1110 C.ar      1 UNL1       -0.0438
     21 C         -55.0182   52.3298  -18.3213 C.ar      1 UNL1        0.0679
     22 H         -53.4211   52.4904  -14.3634 H         1 UNL1        0.2924
     23 H         -52.1247   52.3430  -14.1676 H         1 UNL1        0.0626
     24 H         -49.9303   52.1313  -13.0488 H         1 UNL1        0.0655
     25 H         -47.0709   51.2517  -14.9479 H         1 UNL1        0.2923
     26 H         -47.1149   51.3967  -16.4381 H         1 UNL1        0.2923
     27 H         -50.3072   51.2727  -17.9359 H         1 UNL1        0.0662
     28 H         -52.6271   52.5202  -20.7273 H         1 UNL1        0.0691
     29 H         -53.6177   52.8365  -22.5939 H         1 UNL1        0.2921
     30 H         -56.9092   52.8333  -21.0975 H         1 UNL1        0.0654
     31 H         -57.1477   52.5069  -18.6573 H         1 UNL1        0.0627
@<TRIPOS>BOND
     1    1    2 2
     2    2    3 ar
     3    3    4 1
     4    3    5 ar
     5    5    6 1
     6    6    7 ar
     7    7    8 ar
     8    8    9 ar
     9    9   10 1
    10    9   11 ar
    11   11   12 1
    12   11   13 ar
    13    5   14 ar
    14   14   15 ar
    15   15   16 ar
    16   16   17 ar
    17   17   18 1
    18   17   19 ar
    19   19   20 ar
    20   20   21 ar
    21   21    2 ar
    22   13    6 ar
    23   21   15 ar
    24    4   22 1
    25    7   23 1
    26    8   24 1
    27   10   25 1
    28   12   26 1
    29   13   27 1
    30   16   28 1
    31   18   29 1
    32   19   30 1
    33   20   31 1
@<TRIPOS>SUBSTRUCTURE
1 UNL1 1
@<TRIPOS>COMMENT
Fisetin_Iso0
PLANTSmolcadARTstart hb
PLANTSmolcadARTstart HB
LINES
-53.4211 52.4904 -14.3634 -52.899 54.348 -13.871 0 255 0 5
PLANTSmolcadARTstart HBCH
LINES
PLANTSmolcadARTstart HB-CHO
LINES
PLANTSmolcadARTend
PLANTSmolcadARTstart HB_WATER
LINES
PLANTSmolcadARTend

PLANTSmolcadARTend

@<TRIPOS>MOLECULE
Fisetin_Iso0_entry_00001_conf_03
31 33 1
SMALL
NO_CHARGES


@<TRIPOS>ATOM
      1 O         -55.9556   52.1258  -15.3878 O.2       1 UNL1       -0.2831
      2 C         -55.0249   52.0316  -16.1817 C.ar      1 UNL1        0.2343
      3 C         -53.6368   51.8961  -15.6772 C.ar      1 UNL1        0.2081
      4 O         -53.4710   51.8984  -14.3035 O.3       1 UNL1       -0.5007
      5 C         -52.6304   51.7964  -16.5658 C.ar      1 UNL1        0.1807
      6 C         -51.2081   51.6746  -16.1736 C.ar      1 UNL1        0.0247
      7 C         -50.8081   52.0636  -14.8804 C.ar      1 UNL1       -0.0473
      8 C         -49.4694   51.9841  -14.4862 C.ar      1 UNL1       -0.0159
      9 C         -48.5271   51.5187  -15.3881 C.ar      1 UNL1        0.1583
     10 O         -47.2191   51.4389  -15.0061 O.3       1 UNL1       -0.5033
     11 C         -48.9013   51.1355  -16.6722 C.ar      1 UNL1        0.1589
     12 O         -47.9196   50.6841  -17.5120 O.3       1 UNL1       -0.5033
     13 C         -50.2315   51.2158  -17.0741 C.ar      1 UNL1       -0.0057
     14 O         -52.8102   51.8200  -17.9445 O.2       1 UNL1       -0.4508
     15 C         -54.0805   51.9378  -18.4460 C.ar      1 UNL1        0.1430
     16 C         -54.2210   51.9490  -19.8323 C.ar      1 UNL1        0.0229
     17 C         -55.4904   52.0686  -20.3916 C.ar      1 UNL1        0.1204
     18 O         -55.5833   52.0757  -21.7514 O.3       1 UNL1       -0.5066
     19 C         -56.6237   52.1775  -19.5881 C.ar      1 UNL1       -0.0193
     20 C         -56.4820   52.1661  -18.1992 C.ar      1 UNL1       -0.0438
     21 C         -55.2069   52.0458  -17.6364 C.ar      1 UNL1        0.0679
     22 H         -53.5590   52.8405  -14.0420 H         1 UNL1        0.2924
     23 H         -51.5415   52.4292  -14.1644 H         1 UNL1        0.0626
     24 H         -49.1685   52.2822  -13.4868 H         1 UNL1        0.0655
     25 H         -47.1516   52.0445  -14.2411 H         1 UNL1        0.2923
     26 H         -47.6564   51.4221  -18.0889 H         1 UNL1        0.2923
     27 H         -50.5167   50.9267  -18.0811 H         1 UNL1        0.0662
     28 H         -53.3492   51.8649  -20.4753 H         1 UNL1        0.0691
     29 H         -56.4519   52.4270  -22.0092 H         1 UNL1        0.2921
     30 H         -57.6153   52.2713  -20.0209 H         1 UNL1        0.0654
     31 H         -57.3589   52.2508  -17.5608 H         1 UNL1        0.0627
@<TRIPOS>BOND
     1    1    2 2
     2    2    3 ar
     3    3    4 1
     4    3    5 ar
     5    5    6 1
     6    6    7 ar
     7    7    8 ar
     8    8    9 ar
     9    9   10 1
    10    9   11 ar
    11   11   12 1
    12   11   13 ar
    13    5   14 ar
    14   14   15 ar
    15   15   16 ar
    16   16   17 ar
    17   17   18 1
    18   17   19 ar
    19   19   20 ar
    20   20   21 ar
    21   21    2 ar
    22   13    6 ar
    23   21   15 ar
    24    4   22 1
    25    7   23 1
    26    8   24 1
    27   10   25 1
    28   12   26 1
    29   13   27 1
    30   16   28 1
    31   18   29 1
    32   19   30 1
    33   20   31 1
@<TRIPOS>SUBSTRUCTURE
1 UNL1 1
@<TRIPOS>COMMENT
Fisetin_Iso0
PLANTSmolcadARTstart hb
PLANTSmolcadARTstart HB
LINES
-53.559 52.8405 -14.042 -52.899 54.348 -13.871 0 255 0 5
PLANTSmolcadARTstart HBCH
LINES
PLANTSmolcadARTstart HB-CHO
LINES
PLANTSmolcadARTend
PLANTSmolcadARTstart HB_WATER
LINES
PLANTSmolcadARTend

PLANTSmolcadARTend

@<TRIPOS>MOLECULE
Fisetin_Iso0_entry_00001_conf_04
31 33 1
SMALL
NO_CHARGES


@<TRIPOS>ATOM
      1 O         -56.7005   51.9153  -17.5382 O.2       1 UNL1       -0.2831
      2 C         -55.4931   51.8816  -17.7534 C.ar      1 UNL1        0.2343
      3 C         -54.5584   51.5346  -16.6553 C.ar      1 UNL1        0.2081
      4 O         -55.1207   51.2766  -15.4177 O.3       1 UNL1       -0.5007
      5 C         -53.2373   51.5056  -16.9128 C.ar      1 UNL1        0.1807
      6 C         -52.2159   51.1892  -15.8892 C.ar      1 UNL1        0.0247
      7 C         -52.5012   50.2331  -14.8951 C.ar      1 UNL1       -0.0473
      8 C         -51.5682   49.9284  -13.8999 C.ar      1 UNL1       -0.0159
      9 C         -50.3483   50.5840  -13.8953 C.ar      1 UNL1        0.1583
     10 O         -49.4345   50.2882  -12.9254 O.3       1 UNL1       -0.5033
     11 C         -50.0499   51.5361  -14.8649 C.ar      1 UNL1        0.1589
     12 O         -48.8260   52.1450  -14.8021 O.3       1 UNL1       -0.5033
     13 C         -50.9751   51.8485  -15.8568 C.ar      1 UNL1       -0.0057
     14 O         -52.6848   51.7912  -18.1566 O.2       1 UNL1       -0.4508
     15 C         -53.5198   52.1098  -19.1961 C.ar      1 UNL1        0.1430
     16 C         -52.9295   52.3810  -20.4288 C.ar      1 UNL1        0.0229
     17 C         -53.7340   52.7116  -21.5160 C.ar      1 UNL1        0.1204
     18 O         -53.1163   52.9697  -22.7034 O.3       1 UNL1       -0.5066
     19 C         -55.1204   52.7761  -21.3923 C.ar      1 UNL1       -0.0193
     20 C         -55.7110   52.5041  -20.1568 C.ar      1 UNL1       -0.0438
     21 C         -54.9034   52.1717  -19.0640 C.ar      1 UNL1        0.0679
     22 H         -54.5312   50.6061  -15.0095 H         1 UNL1        0.2924
     23 H         -53.4565   49.7118  -14.8912 H         1 UNL1        0.0626
     24 H         -51.7932   49.1879  -13.1388 H         1 UNL1        0.0655
     25 H         -49.5386   49.3270  -12.7780 H         1 UNL1        0.2923
     26 H         -48.2080   51.6325  -15.3519 H         1 UNL1        0.2923
     27 H         -50.7422   52.6008  -16.6043 H         1 UNL1        0.0662
     28 H         -51.8501   52.3355  -20.5450 H         1 UNL1        0.0691
     29 H         -53.3502   52.2751  -23.3413 H         1 UNL1        0.2921
     30 H         -55.7510   53.0340  -22.2381 H         1 UNL1        0.0654
     31 H         -56.7924   52.5514  -20.0470 H         1 UNL1        0.0627
@<TRIPOS>BOND
     1    1    2 2
     2    2    3 ar
     3    3    4 1
     4    3    5 ar
     5    5    6 1
     6    6    7 ar
     7    7    8 ar
     8    8    9 ar
     9    9   10 1
    10    9   11 ar
    11   11   12 1
    12   11   13 ar
    13    5   14 ar
    14   14   15 ar
    15   15   16 ar
    16   16   17 ar
    17   17   18 1
    18   17   19 ar
    19   19   20 ar
    20   20   21 ar
    21   21    2 ar
    22   13    6 ar
    23   21   15 ar
    24    4   22 1
    25    7   23 1
    26    8   24 1
    27   10   25 1
    28   12   26 1
    29   13   27 1
    30   16   28 1
    31   18   29 1
    32   19   30 1
    33   20   31 1
@<TRIPOS>SUBSTRUCTURE
1 UNL1 1
@<TRIPOS>COMMENT
Fisetin_Iso0
PLANTSmolcadARTstart hb
PLANTSmolcadARTstart HB
LINES
PLANTSmolcadARTstart HBCH
LINES
PLANTSmolcadARTstart HB-CHO
LINES
PLANTSmolcadARTend
PLANTSmolcadARTstart HB_WATER
LINES
PLANTSmolcadARTend

PLANTSmolcadARTend

@<TRIPOS>MOLECULE
Fisetin_Iso0_entry_00001_conf_05
31 33 1
SMALL
NO_CHARGES


@<TRIPOS>ATOM
      1 O         -50.9072   50.8456  -21.6301 O.2       1 UNL1       -0.2831
      2 C         -51.4960   51.1303  -20.5921 C.ar      1 UNL1        0.2343
      3 C         -50.9426   50.6929  -19.2874 C.ar      1 UNL1        0.2081
      4 O         -49.7707   49.9581  -19.3232 O.3       1 UNL1       -0.5007
      5 C         -51.6060   51.0142  -18.1608 C.ar      1 UNL1        0.1807
      6 C         -51.1541   50.6153  -16.8088 C.ar      1 UNL1        0.0247
      7 C         -50.4468   49.4090  -16.6403 C.ar      1 UNL1       -0.0473
      8 C         -50.0267   48.9912  -15.3743 C.ar      1 UNL1       -0.0159
      9 C         -50.3180   49.7787  -14.2729 C.ar      1 UNL1        0.1583
     10 O         -49.9085   49.3741  -13.0353 O.3       1 UNL1       -0.5033
     11 C         -51.0210   50.9706  -14.4178 C.ar      1 UNL1        0.1589
     12 O         -51.2740   51.7003  -13.2882 O.3       1 UNL1       -0.5033
     13 C         -51.4467   51.3916  -15.6744 C.ar      1 UNL1       -0.0057
     14 O         -52.7963   51.7330  -18.1420 O.2       1 UNL1       -0.4508
     15 C         -53.3333   52.1585  -19.3293 C.ar      1 UNL1        0.1430
     16 C         -54.5220   52.8831  -19.2690 C.ar      1 UNL1        0.0229
     17 C         -55.1089   53.3363  -20.4474 C.ar      1 UNL1        0.1204
     18 O         -56.2711   54.0409  -20.3438 O.3       1 UNL1       -0.5066
     19 C         -54.5275   53.0775  -21.6870 C.ar      1 UNL1       -0.0193
     20 C         -53.3364   52.3515  -21.7465 C.ar      1 UNL1       -0.0438
     21 C         -52.7460   51.8959  -20.5630 C.ar      1 UNL1        0.0679
     22 H         -49.6236   49.6755  -18.3947 H         1 UNL1        0.2924
     23 H         -50.2121   48.7843  -17.4999 H         1 UNL1        0.0626
     24 H         -49.4789   48.0621  -15.2520 H         1 UNL1        0.0655
     25 H         -50.7349   49.3015  -12.5172 H         1 UNL1        0.2923
     26 H         -52.1869   51.5126  -13.0085 H         1 UNL1        0.2923
     27 H         -52.0054   52.3166  -15.7807 H         1 UNL1        0.0662
     28 H         -54.9902   53.0951  -18.3118 H         1 UNL1        0.0691
     29 H         -57.0176   53.4565  -20.5574 H         1 UNL1        0.2921
     30 H         -54.9827   53.4292  -22.6082 H         1 UNL1        0.0654
     31 H         -52.8726   52.1424  -22.7082 H         1 UNL1        0.0627
@<TRIPOS>BOND
     1    1    2 2
     2    2    3 ar
     3    3    4 1
     4    3    5 ar
     5    5    6 1
     6    6    7 ar
     7    7    8 ar
     8    8    9 ar
     9    9   10 1
    10    9   11 ar
    11   11   12 1
    12   11   13 ar
    13    5   14 ar
    14   14   15 ar
    15   15   16 ar
    16   16   17 ar
    17   17   18 1
    18   17   19 ar
    19   19   20 ar
    20   20   21 ar
    21   21    2 ar
    22   13    6 ar
    23   21   15 ar
    24    4   22 1
    25    7   23 1
    26    8   24 1
    27   10   25 1
    28   12   26 1
    29   13   27 1
    30   16   28 1
    31   18   29 1
    32   19   30 1
    33   20   31 1
@<TRIPOS>SUBSTRUCTURE
1 UNL1 1
@<TRIPOS>COMMENT
Fisetin_Iso0
PLANTSmolcadARTstart hb
PLANTSmolcadARTstart HB
LINES
PLANTSmolcadARTstart HBCH
LINES
PLANTSmolcadARTstart HB-CHO
LINES
PLANTSmolcadARTend
PLANTSmolcadARTstart HB_WATER
LINES
PLANTSmolcadARTend

PLANTSmolcadARTend

@<TRIPOS>MOLECULE
Fisetin_Iso0_entry_00001_conf_06
31 33 1
SMALL
NO_CHARGES


@<TRIPOS>ATOM
      1 O         -53.5631   50.7707  -13.6811 O.2       1 UNL1       -0.2831
      2 C         -53.1223   51.1858  -14.7482 C.ar      1 UNL1        0.2343
      3 C         -54.0438   51.4123  -15.8880 C.ar      1 UNL1        0.2081
      4 O         -55.3795   51.1198  -15.6760 O.3       1 UNL1       -0.5007
      5 C         -53.5387   51.8661  -17.0505 C.ar      1 UNL1        0.1807
      6 C         -54.3631   52.1103  -18.2555 C.ar      1 UNL1        0.0247
      7 C         -55.6952   52.5440  -18.1099 C.ar      1 UNL1       -0.0473
      8 C         -56.5081   52.7608  -19.2261 C.ar      1 UNL1       -0.0159
      9 C         -55.9900   52.5394  -20.4912 C.ar      1 UNL1        0.1583
     10 O         -56.7808   52.7510  -21.5835 O.3       1 UNL1       -0.5033
     11 C         -54.6785   52.1050  -20.6558 C.ar      1 UNL1        0.1589
     12 O         -54.2303   51.9069  -21.9334 O.3       1 UNL1       -0.5033
     13 C         -53.8638   51.8825  -19.5493 C.ar      1 UNL1       -0.0057
     14 O         -52.1895   52.1327  -17.2563 O.2       1 UNL1       -0.4508
     15 C         -51.3100   51.9405  -16.2224 C.ar      1 UNL1        0.1430
     16 C         -49.9679   52.2268  -16.4646 C.ar      1 UNL1        0.0229
     17 C         -49.0343   52.0463  -15.4475 C.ar      1 UNL1        0.1204
     18 O         -47.7324   52.3378  -15.7263 O.3       1 UNL1       -0.5066
     19 C         -49.4194   51.5839  -14.1907 C.ar      1 UNL1       -0.0193
     20 C         -50.7643   51.2974  -13.9489 C.ar      1 UNL1       -0.0438
     21 C         -51.7030   51.4786  -14.9703 C.ar      1 UNL1        0.0679
     22 H         -55.8580   51.6089  -16.3799 H         1 UNL1        0.2924
     23 H         -56.1107   52.7220  -17.1200 H         1 UNL1        0.0626
     24 H         -57.5328   53.0985  -19.1069 H         1 UNL1        0.0655
     25 H         -57.4776   52.0682  -21.5153 H         1 UNL1        0.2923
     26 H         -53.7967   52.7263  -22.2291 H         1 UNL1        0.2923
     27 H         -52.8447   51.5321  -19.6824 H         1 UNL1        0.0662
     28 H         -49.6485   52.5885  -17.4380 H         1 UNL1        0.0691
     29 H         -47.1578   51.7179  -15.2469 H         1 UNL1        0.2921
     30 H         -48.6939   51.4417  -13.3951 H         1 UNL1        0.0654
     31 H         -51.0777   50.9354  -12.9721 H         1 UNL1        0.0627
@<TRIPOS>BOND
     1    1    2 2
     2    2    3 ar
     3    3    4 1
     4    3    5 ar
     5    5    6 1
     6    6    7 ar
     7    7    8 ar
     8    8    9 ar
     9    9   10 1
    10    9   11 ar
    11   11   12 1
    12   11   13 ar
    13    5   14 ar
    14   14   15 ar
    15   15   16 ar
    16   16   17 ar
    17   17   18 1
    18   17   19 ar
    19   19   20 ar
    20   20   21 ar
    21   21    2 ar
    22   13    6 ar
    23   21   15 ar
    24    4   22 1
    25    7   23 1
    26    8   24 1
    27   10   25 1
    28   12   26 1
    29   13   27 1
    30   16   28 1
    31   18   29 1
    32   19   30 1
    33   20   31 1
@<TRIPOS>SUBSTRUCTURE
1 UNL1 1
@<TRIPOS>COMMENT
Fisetin_Iso0
PLANTSmolcadARTstart hb
PLANTSmolcadARTstart HB
LINES
PLANTSmolcadARTstart HBCH
LINES
PLANTSmolcadARTstart HB-CHO
LINES
PLANTSmolcadARTend
PLANTSmolcadARTstart HB_WATER
LINES
PLANTSmolcadARTend

PLANTSmolcadARTend

@<TRIPOS>MOLECULE
Fisetin_Iso0_entry_00001_conf_07
31 33 1
SMALL
NO_CHARGES


@<TRIPOS>ATOM
      1 O         -54.1634   50.1391  -14.3999 O.2       1 UNL1       -0.2831
      2 C         -53.5137   50.6886  -15.2838 C.ar      1 UNL1        0.2343
      3 C         -54.1740   51.0658  -16.5572 C.ar      1 UNL1        0.2081
      4 O         -55.5165   50.7535  -16.6786 O.3       1 UNL1       -0.5007
      5 C         -53.4420   51.6658  -17.5147 C.ar      1 UNL1        0.1807
      6 C         -53.9938   52.0689  -18.8278 C.ar      1 UNL1        0.0247
      7 C         -55.3363   51.7761  -19.1370 C.ar      1 UNL1       -0.0473
      8 C         -55.8817   52.1213  -20.3767 C.ar      1 UNL1       -0.0159
      9 C         -55.0823   52.7570  -21.3120 C.ar      1 UNL1        0.1583
     10 O         -55.6120   53.0964  -22.5234 O.3       1 UNL1       -0.5033
     11 C         -53.7520   53.0494  -21.0280 C.ar      1 UNL1        0.1589
     12 O         -53.0192   53.6797  -21.9967 O.3       1 UNL1       -0.5033
     13 C         -53.1999   52.7051  -19.7975 C.ar      1 UNL1       -0.0057
     14 O         -52.0870   51.9516  -17.3877 O.2       1 UNL1       -0.4508
     15 C         -51.4459   51.6223  -16.2216 C.ar      1 UNL1        0.1430
     16 C         -50.0905   51.9324  -16.1288 C.ar      1 UNL1        0.0229
     17 C         -49.3933   51.6167  -14.9657 C.ar      1 UNL1        0.1204
     18 O         -48.0693   51.9369  -14.9165 O.3       1 UNL1       -0.5066
     19 C         -50.0282   50.9954  -13.8921 C.ar      1 UNL1       -0.0193
     20 C         -51.3861   50.6851  -13.9859 C.ar      1 UNL1       -0.0438
     21 C         -52.0875   51.0021  -15.1541 C.ar      1 UNL1        0.0679
     22 H         -55.9856   51.4789  -16.2123 H         1 UNL1        0.2924
     23 H         -55.9726   51.2780  -18.4080 H         1 UNL1        0.0626
     24 H         -56.9182   51.8958  -20.6071 H         1 UNL1        0.0655
     25 H         -55.5152   52.2886  -23.0661 H         1 UNL1        0.2923
     26 H         -53.4230   53.4754  -22.8582 H         1 UNL1        0.2923
     27 H         -52.1580   52.9248  -19.5852 H         1 UNL1        0.0662
     28 H         -49.5782   52.4171  -16.9553 H         1 UNL1        0.0691
     29 H         -47.9777   52.9019  -14.8489 H         1 UNL1        0.2921
     30 H         -49.4874   50.7474  -12.9835 H         1 UNL1        0.0654
     31 H         -51.8934   50.1997  -13.1548 H         1 UNL1        0.0627
@<TRIPOS>BOND
     1    1    2 2
     2    2    3 ar
     3    3    4 1
     4    3    5 ar
     5    5    6 1
     6    6    7 ar
     7    7    8 ar
     8    8    9 ar
     9    9   10 1
    10    9   11 ar
    11   11   12 1
    12   11   13 ar
    13    5   14 ar
    14   14   15 ar
    15   15   16 ar
    16   16   17 ar
    17   17   18 1
    18   17   19 ar
    19   19   20 ar
    20   20   21 ar
    21   21    2 ar
    22   13    6 ar
    23   21   15 ar
    24    4   22 1
    25    7   23 1
    26    8   24 1
    27   10   25 1
    28   12   26 1
    29   13   27 1
    30   16   28 1
    31   18   29 1
    32   19   30 1
    33   20   31 1
@<TRIPOS>SUBSTRUCTURE
1 UNL1 1
@<TRIPOS>COMMENT
Fisetin_Iso0
PLANTSmolcadARTstart hb
PLANTSmolcadARTstart HB
LINES
PLANTSmolcadARTstart HBCH
LINES
PLANTSmolcadARTstart HB-CHO
LINES
PLANTSmolcadARTend
PLANTSmolcadARTstart HB_WATER
LINES
PLANTSmolcadARTend

PLANTSmolcadARTend

@<TRIPOS>MOLECULE
Fisetin_Iso0_entry_00001_conf_08
31 33 1
SMALL
NO_CHARGES


@<TRIPOS>ATOM
      1 O         -56.3911   53.1799  -18.4744 O.2       1 UNL1       -0.2831
      2 C         -55.2429   52.7516  -18.4142 C.ar      1 UNL1        0.2343
      3 C         -54.5900   52.5770  -17.0939 C.ar      1 UNL1        0.2081
      4 O         -55.3320   52.9310  -15.9810 O.3       1 UNL1       -0.5007
      5 C         -53.3289   52.1077  -17.0509 C.ar      1 UNL1        0.1807
      6 C         -52.5767   51.9112  -15.7912 C.ar      1 UNL1        0.0247
      7 C         -53.2786   51.7294  -14.5837 C.ar      1 UNL1       -0.0473
      8 C         -52.5992   51.5651  -13.3733 C.ar      1 UNL1       -0.0159
      9 C         -51.2144   51.5870  -13.3686 C.ar      1 UNL1        0.1583
     10 O         -50.5477   51.4260  -12.1884 O.3       1 UNL1       -0.5033
     11 C         -50.5029   51.7715  -14.5499 C.ar      1 UNL1        0.1589
     12 O         -49.1366   51.7816  -14.4736 O.3       1 UNL1       -0.5033
     13 C         -51.1719   51.9402  -15.7588 C.ar      1 UNL1       -0.0057
     14 O         -52.5866   51.7789  -18.1799 O.2       1 UNL1       -0.4508
     15 C         -53.1609   51.9220  -19.4163 C.ar      1 UNL1        0.1430
     16 C         -52.3888   51.5741  -20.5229 C.ar      1 UNL1        0.0229
     17 C         -52.9256   51.7030  -21.8011 C.ar      1 UNL1        0.1204
     18 O         -52.1367   51.3521  -22.8558 O.3       1 UNL1       -0.5066
     19 C         -54.2228   52.1745  -21.9928 C.ar      1 UNL1       -0.0193
     20 C         -54.9957   52.5229  -20.8836 C.ar      1 UNL1       -0.0438
     21 C         -54.4571   52.3934  -19.5989 C.ar      1 UNL1        0.0679
     22 H         -55.2610   52.1605  -15.3770 H         1 UNL1        0.2924
     23 H         -54.3667   51.7094  -14.5776 H         1 UNL1        0.0626
     24 H         -53.1464   51.4219  -12.4469 H         1 UNL1        0.0655
     25 H         -50.3071   50.4782  -12.1722 H         1 UNL1        0.2923
     26 H         -48.8503   52.7032  -14.3495 H         1 UNL1        0.2923
     27 H         -50.6123   52.0958  -16.6761 H         1 UNL1        0.0662
     28 H         -51.3754   51.2043  -20.3935 H         1 UNL1        0.0691
     29 H         -51.3809   51.9608  -22.9042 H         1 UNL1        0.2921
     30 H         -54.6446   52.2768  -22.9883 H         1 UNL1        0.0654
     31 H         -56.0098   52.8926  -21.0198 H         1 UNL1        0.0627
@<TRIPOS>BOND
     1    1    2 2
     2    2    3 ar
     3    3    4 1
     4    3    5 ar
     5    5    6 1
     6    6    7 ar
     7    7    8 ar
     8    8    9 ar
     9    9   10 1
    10    9   11 ar
    11   11   12 1
    12   11   13 ar
    13    5   14 ar
    14   14   15 ar
    15   15   16 ar
    16   16   17 ar
    17   17   18 1
    18   17   19 ar
    19   19   20 ar
    20   20   21 ar
    21   21    2 ar
    22   13    6 ar
    23   21   15 ar
    24    4   22 1
    25    7   23 1
    26    8   24 1
    27   10   25 1
    28   12   26 1
    29   13   27 1
    30   16   28 1
    31   18   29 1
    32   19   30 1
    33   20   31 1
@<TRIPOS>SUBSTRUCTURE
1 UNL1 1
@<TRIPOS>COMMENT
Fisetin_Iso0
PLANTSmolcadARTstart hb
PLANTSmolcadARTstart HB
LINES
-55.332 52.931 -15.981 -54.631 54.827 -15.536 0 255 0 5
PLANTSmolcadARTstart HBCH
LINES
PLANTSmolcadARTstart HB-CHO
LINES
PLANTSmolcadARTend
PLANTSmolcadARTstart HB_WATER
LINES
PLANTSmolcadARTend

PLANTSmolcadARTend

@<TRIPOS>MOLECULE
Fisetin_Iso0_entry_00001_conf_09
31 33 1
SMALL
NO_CHARGES


@<TRIPOS>ATOM
      1 O         -56.5510   50.6934  -17.1930 O.2       1 UNL1       -0.2831
      2 C         -55.4186   51.0852  -17.4564 C.ar      1 UNL1        0.2343
      3 C         -54.3114   50.8337  -16.5022 C.ar      1 UNL1        0.2081
      4 O         -54.6357   50.1660  -15.3345 O.3       1 UNL1       -0.5007
      5 C         -53.0770   51.2742  -16.8100 C.ar      1 UNL1        0.1807
      6 C         -51.9045   51.0934  -15.9247 C.ar      1 UNL1        0.0247
      7 C         -52.0987   50.9254  -14.5398 C.ar      1 UNL1       -0.0473
      8 C         -51.0123   50.7763  -13.6730 C.ar      1 UNL1       -0.0159
      9 C         -49.7281   50.7994  -14.1908 C.ar      1 UNL1        0.1583
     10 O         -48.6649   50.6531  -13.3473 O.3       1 UNL1       -0.5033
     11 C         -49.5151   50.9703  -15.5550 C.ar      1 UNL1        0.1589
     12 O         -48.2209   50.9825  -15.9995 O.3       1 UNL1       -0.5033
     13 C         -50.5913   51.1240  -16.4244 C.ar      1 UNL1       -0.0057
     14 O         -52.7707   51.9655  -17.9771 O.2       1 UNL1       -0.4508
     15 C         -53.7687   52.2102  -18.8846 C.ar      1 UNL1        0.1430
     16 C         -53.4211   52.8978  -20.0456 C.ar      1 UNL1        0.0229
     17 C         -54.3988   53.1728  -20.9980 C.ar      1 UNL1        0.1204
     18 O         -54.0165   53.8477  -22.1188 O.3       1 UNL1       -0.5066
     19 C         -55.7200   52.7719  -20.8098 C.ar      1 UNL1       -0.0193
     20 C         -56.0673   52.0829  -19.6462 C.ar      1 UNL1       -0.0438
     21 C         -55.0855   51.8060  -18.6889 C.ar      1 UNL1        0.0679
     22 H         -55.5165   49.7693  -15.5090 H         1 UNL1        0.2924
     23 H         -53.1041   50.9046  -14.1239 H         1 UNL1        0.0626
     24 H         -51.1693   50.6437  -12.6072 H         1 UNL1        0.0655
     25 H         -48.3720   49.7299  -13.4828 H         1 UNL1        0.2923
     26 H         -48.1000   51.7771  -16.5478 H         1 UNL1        0.2923
     27 H         -50.4194   51.2690  -17.4867 H         1 UNL1        0.0662
     28 H         -52.3961   53.2183  -20.2104 H         1 UNL1        0.0691
     29 H         -54.2281   53.3113  -22.9009 H         1 UNL1        0.2921
     30 H         -56.4853   52.9850  -21.5503 H         1 UNL1        0.0654
     31 H         -57.0955   51.7647  -19.4871 H         1 UNL1        0.0627
@<TRIPOS>BOND
     1    1    2 2
     2    2    3 ar
     3    3    4 1
     4    3    5 ar
     5    5    6 1
     6    6    7 ar
     7    7    8 ar
     8    8    9 ar
     9    9   10 1
    10    9   11 ar
    11   11   12 1
    12   11   13 ar
    13    5   14 ar
    14   14   15 ar
    15   15   16 ar
    16   16   17 ar
    17   17   18 1
    18   17   19 ar
    19   19   20 ar
    20   20   21 ar
    21   21    2 ar
    22   13    6 ar
    23   21   15 ar
    24    4   22 1
    25    7   23 1
    26    8   24 1
    27   10   25 1
    28   12   26 1
    29   13   27 1
    30   16   28 1
    31   18   29 1
    32   19   30 1
    33   20   31 1
@<TRIPOS>SUBSTRUCTURE
1 UNL1 1
@<TRIPOS>COMMENT
Fisetin_Iso0
PLANTSmolcadARTstart hb
PLANTSmolcadARTstart HB
LINES
PLANTSmolcadARTstart HBCH
LINES
PLANTSmolcadARTstart HB-CHO
LINES
PLANTSmolcadARTend
PLANTSmolcadARTstart HB_WATER
LINES
PLANTSmolcadARTend

PLANTSmolcadARTend

@<TRIPOS>MOLECULE
Fisetin_Iso0_entry_00001_conf_10
31 33 1
SMALL
NO_CHARGES


@<TRIPOS>ATOM
      1 O         -53.6668   49.4414  -14.5358 O.2       1 UNL1       -0.2831
      2 C         -53.2369   50.2747  -15.3271 C.ar      1 UNL1        0.2343
      3 C         -53.8910   50.4430  -16.6476 C.ar      1 UNL1        0.2081
      4 O         -54.9674   49.6169  -16.9187 O.3       1 UNL1       -0.5007
      5 C         -53.4018   51.3617  -17.5015 C.ar      1 UNL1        0.1807
      6 C         -53.9653   51.6010  -18.8493 C.ar      1 UNL1        0.0247
      7 C         -55.3501   51.4542  -19.0597 C.ar      1 UNL1       -0.0473
      8 C         -55.9111   51.6493  -20.3250 C.ar      1 UNL1       -0.0159
      9 C         -55.0855   51.9878  -21.3841 C.ar      1 UNL1        0.1583
     10 O         -55.6301   52.1799  -22.6208 O.3       1 UNL1       -0.5033
     11 C         -53.7142   52.1315  -21.1980 C.ar      1 UNL1        0.1589
     12 O         -52.9571   52.4683  -22.2870 O.3       1 UNL1       -0.5033
     13 C         -53.1470   51.9347  -19.9422 C.ar      1 UNL1       -0.0057
     14 O         -52.3035   52.1684  -17.2244 O.2       1 UNL1       -0.4508
     15 C         -51.6782   52.0439  -16.0108 C.ar      1 UNL1        0.1430
     16 C         -50.5870   52.8754  -15.7668 C.ar      1 UNL1        0.0229
     17 C         -49.9163   52.7866  -14.5499 C.ar      1 UNL1        0.1204
     18 O         -48.8543   53.6178  -14.3520 O.3       1 UNL1       -0.5066
     19 C         -50.3179   51.8797  -13.5712 C.ar      1 UNL1       -0.0193
     20 C         -51.4113   51.0470  -13.8165 C.ar      1 UNL1       -0.0438
     21 C         -52.0859   51.1357  -15.0389 C.ar      1 UNL1        0.0679
     22 H         -55.4464   49.5411  -16.0652 H         1 UNL1        0.2924
     23 H         -56.0071   51.1897  -18.2333 H         1 UNL1        0.0626
     24 H         -56.9798   51.5379  -20.4794 H         1 UNL1        0.0655
     25 H         -55.1722   51.5313  -23.1918 H         1 UNL1        0.2923
     26 H         -52.1305   51.9565  -22.2470 H         1 UNL1        0.2923
     27 H         -52.0748   52.0364  -19.8046 H         1 UNL1        0.0662
     28 H         -50.2592   53.5891  -16.5176 H         1 UNL1        0.0691
     29 H         -48.2462   53.2104  -13.7129 H         1 UNL1        0.2921
     30 H         -49.7968   51.8074  -12.6210 H         1 UNL1        0.0654
     31 H         -51.7346   50.3343  -13.0607 H         1 UNL1        0.0627
@<TRIPOS>BOND
     1    1    2 2
     2    2    3 ar
     3    3    4 1
     4    3    5 ar
     5    5    6 1
     6    6    7 ar
     7    7    8 ar
     8    8    9 ar
     9    9   10 1
    10    9   11 ar
    11   11   12 1
    12   11   13 ar
    13    5   14 ar
    14   14   15 ar
    15   15   16 ar
    16   16   17 ar
    17   17   18 1
    18   17   19 ar
    19   19   20 ar
    20   20   21 ar
    21   21    2 ar
    22   13    6 ar
    23   21   15 ar
    24    4   22 1
    25    7   23 1
    26    8   24 1
    27   10   25 1
    28   12   26 1
    29   13   27 1
    30   16   28 1
    31   18   29 1
    32   19   30 1
    33   20   31 1
@<TRIPOS>SUBSTRUCTURE
1 UNL1 1
@<TRIPOS>COMMENT
Fisetin_Iso0
PLANTSmolcadARTstart hb
PLANTSmolcadARTstart HB
LINES
PLANTSmolcadARTstart HBCH
LINES
PLANTSmolcadARTstart HB-CHO
LINES
PLANTSmolcadARTend
PLANTSmolcadARTstart HB_WATER
LINES
PLANTSmolcadARTend

PLANTSmolcadARTend

